
---------- Begin Simulation Statistics ----------
sim_seconds                                  0.515303                       # Number of seconds simulated
sim_ticks                                515303322000                       # Number of ticks simulated
final_tick                               515303322000                       # Number of ticks from beginning of simulation (restored from checkpoints and never reset)
sim_freq                                 1000000000000                       # Frequency of simulated ticks
host_inst_rate                                1661755                       # Simulator instruction rate (inst/s)
host_op_rate                                  2252871                       # Simulator op (including micro ops) rate (op/s)
host_tick_rate                             3188182676                       # Simulator tick rate (ticks/s)
host_mem_usage                                 716588                       # Number of bytes of host memory used
host_seconds                                   161.63                       # Real time elapsed on the host
sim_insts                                   268587998                       # Number of instructions simulated
sim_ops                                     364129638                       # Number of ops (including micro ops) simulated
system.voltage_domain.voltage                       1                       # Voltage in Volts
system.clk_domain.clock                          1000                       # Clock period in ticks
system.mem_ctrls.pwrStateResidencyTicks::UNDEFINED 515303322000                       # Cumulative time (in ticks) in various power states
system.mem_ctrls.bytes_read::cpu.inst           34880                       # Number of bytes read from this memory
system.mem_ctrls.bytes_read::cpu.data           20928                       # Number of bytes read from this memory
system.mem_ctrls.bytes_read::total              55808                       # Number of bytes read from this memory
system.mem_ctrls.bytes_inst_read::cpu.inst        34880                       # Number of instructions bytes read from this memory
system.mem_ctrls.bytes_inst_read::total         34880                       # Number of instructions bytes read from this memory
system.mem_ctrls.num_reads::cpu.inst              545                       # Number of read requests responded to by this memory
system.mem_ctrls.num_reads::cpu.data              327                       # Number of read requests responded to by this memory
system.mem_ctrls.num_reads::total                 872                       # Number of read requests responded to by this memory
system.mem_ctrls.bw_read::cpu.inst              67688                       # Total read bandwidth from this memory (bytes/s)
system.mem_ctrls.bw_read::cpu.data              40613                       # Total read bandwidth from this memory (bytes/s)
system.mem_ctrls.bw_read::total                108301                       # Total read bandwidth from this memory (bytes/s)
system.mem_ctrls.bw_inst_read::cpu.inst         67688                       # Instruction read bandwidth from this memory (bytes/s)
system.mem_ctrls.bw_inst_read::total            67688                       # Instruction read bandwidth from this memory (bytes/s)
system.mem_ctrls.bw_total::cpu.inst             67688                       # Total bandwidth to/from this memory (bytes/s)
system.mem_ctrls.bw_total::cpu.data             40613                       # Total bandwidth to/from this memory (bytes/s)
system.mem_ctrls.bw_total::total               108301                       # Total bandwidth to/from this memory (bytes/s)
system.mem_ctrls.readReqs                         872                       # Number of read requests accepted
system.mem_ctrls.writeReqs                          0                       # Number of write requests accepted
system.mem_ctrls.readBursts                       872                       # Number of DRAM read bursts, including those serviced by the write queue
system.mem_ctrls.writeBursts                        0                       # Number of DRAM write bursts, including those merged in the write queue
system.mem_ctrls.bytesReadDRAM                  55808                       # Total number of bytes read from DRAM
system.mem_ctrls.bytesReadWrQ                       0                       # Total number of bytes read from write queue
system.mem_ctrls.bytesWritten                       0                       # Total number of bytes written to DRAM
system.mem_ctrls.bytesReadSys                   55808                       # Total read bytes from the system interface side
system.mem_ctrls.bytesWrittenSys                    0                       # Total written bytes from the system interface side
system.mem_ctrls.servicedByWrQ                      0                       # Number of DRAM read bursts serviced by the write queue
system.mem_ctrls.mergedWrBursts                     0                       # Number of DRAM write bursts merged with an existing one
system.mem_ctrls.neitherReadNorWriteReqs            0                       # Number of requests that are neither read nor write
system.mem_ctrls.perBankRdBursts::0               117                       # Per bank write bursts
system.mem_ctrls.perBankRdBursts::1                 0                       # Per bank write bursts
system.mem_ctrls.perBankRdBursts::2                44                       # Per bank write bursts
system.mem_ctrls.perBankRdBursts::3                33                       # Per bank write bursts
system.mem_ctrls.perBankRdBursts::4                27                       # Per bank write bursts
system.mem_ctrls.perBankRdBursts::5                39                       # Per bank write bursts
system.mem_ctrls.perBankRdBursts::6                84                       # Per bank write bursts
system.mem_ctrls.perBankRdBursts::7                21                       # Per bank write bursts
system.mem_ctrls.perBankRdBursts::8                50                       # Per bank write bursts
system.mem_ctrls.perBankRdBursts::9                78                       # Per bank write bursts
system.mem_ctrls.perBankRdBursts::10              101                       # Per bank write bursts
system.mem_ctrls.perBankRdBursts::11               82                       # Per bank write bursts
system.mem_ctrls.perBankRdBursts::12               13                       # Per bank write bursts
system.mem_ctrls.perBankRdBursts::13              131                       # Per bank write bursts
system.mem_ctrls.perBankRdBursts::14               34                       # Per bank write bursts
system.mem_ctrls.perBankRdBursts::15               18                       # Per bank write bursts
system.mem_ctrls.perBankWrBursts::0                 0                       # Per bank write bursts
system.mem_ctrls.perBankWrBursts::1                 0                       # Per bank write bursts
system.mem_ctrls.perBankWrBursts::2                 0                       # Per bank write bursts
system.mem_ctrls.perBankWrBursts::3                 0                       # Per bank write bursts
system.mem_ctrls.perBankWrBursts::4                 0                       # Per bank write bursts
system.mem_ctrls.perBankWrBursts::5                 0                       # Per bank write bursts
system.mem_ctrls.perBankWrBursts::6                 0                       # Per bank write bursts
system.mem_ctrls.perBankWrBursts::7                 0                       # Per bank write bursts
system.mem_ctrls.perBankWrBursts::8                 0                       # Per bank write bursts
system.mem_ctrls.perBankWrBursts::9                 0                       # Per bank write bursts
system.mem_ctrls.perBankWrBursts::10                0                       # Per bank write bursts
system.mem_ctrls.perBankWrBursts::11                0                       # Per bank write bursts
system.mem_ctrls.perBankWrBursts::12                0                       # Per bank write bursts
system.mem_ctrls.perBankWrBursts::13                0                       # Per bank write bursts
system.mem_ctrls.perBankWrBursts::14                0                       # Per bank write bursts
system.mem_ctrls.perBankWrBursts::15                0                       # Per bank write bursts
system.mem_ctrls.numRdRetry                         0                       # Number of times read queue was full causing retry
system.mem_ctrls.numWrRetry                         0                       # Number of times write queue was full causing retry
system.mem_ctrls.totGap                  515303204000                       # Total gap between requests
system.mem_ctrls.readPktSize::0                     0                       # Read request sizes (log2)
system.mem_ctrls.readPktSize::1                     0                       # Read request sizes (log2)
system.mem_ctrls.readPktSize::2                     0                       # Read request sizes (log2)
system.mem_ctrls.readPktSize::3                     0                       # Read request sizes (log2)
system.mem_ctrls.readPktSize::4                     0                       # Read request sizes (log2)
system.mem_ctrls.readPktSize::5                     0                       # Read request sizes (log2)
system.mem_ctrls.readPktSize::6                   872                       # Read request sizes (log2)
system.mem_ctrls.writePktSize::0                    0                       # Write request sizes (log2)
system.mem_ctrls.writePktSize::1                    0                       # Write request sizes (log2)
system.mem_ctrls.writePktSize::2                    0                       # Write request sizes (log2)
system.mem_ctrls.writePktSize::3                    0                       # Write request sizes (log2)
system.mem_ctrls.writePktSize::4                    0                       # Write request sizes (log2)
system.mem_ctrls.writePktSize::5                    0                       # Write request sizes (log2)
system.mem_ctrls.writePktSize::6                    0                       # Write request sizes (log2)
system.mem_ctrls.rdQLenPdf::0                     871                       # What read queue length does an incoming req see
system.mem_ctrls.rdQLenPdf::1                       1                       # What read queue length does an incoming req see
system.mem_ctrls.rdQLenPdf::2                       0                       # What read queue length does an incoming req see
system.mem_ctrls.rdQLenPdf::3                       0                       # What read queue length does an incoming req see
system.mem_ctrls.rdQLenPdf::4                       0                       # What read queue length does an incoming req see
system.mem_ctrls.rdQLenPdf::5                       0                       # What read queue length does an incoming req see
system.mem_ctrls.rdQLenPdf::6                       0                       # What read queue length does an incoming req see
system.mem_ctrls.rdQLenPdf::7                       0                       # What read queue length does an incoming req see
system.mem_ctrls.rdQLenPdf::8                       0                       # What read queue length does an incoming req see
system.mem_ctrls.rdQLenPdf::9                       0                       # What read queue length does an incoming req see
system.mem_ctrls.rdQLenPdf::10                      0                       # What read queue length does an incoming req see
system.mem_ctrls.rdQLenPdf::11                      0                       # What read queue length does an incoming req see
system.mem_ctrls.rdQLenPdf::12                      0                       # What read queue length does an incoming req see
system.mem_ctrls.rdQLenPdf::13                      0                       # What read queue length does an incoming req see
system.mem_ctrls.rdQLenPdf::14                      0                       # What read queue length does an incoming req see
system.mem_ctrls.rdQLenPdf::15                      0                       # What read queue length does an incoming req see
system.mem_ctrls.rdQLenPdf::16                      0                       # What read queue length does an incoming req see
system.mem_ctrls.rdQLenPdf::17                      0                       # What read queue length does an incoming req see
system.mem_ctrls.rdQLenPdf::18                      0                       # What read queue length does an incoming req see
system.mem_ctrls.rdQLenPdf::19                      0                       # What read queue length does an incoming req see
system.mem_ctrls.rdQLenPdf::20                      0                       # What read queue length does an incoming req see
system.mem_ctrls.rdQLenPdf::21                      0                       # What read queue length does an incoming req see
system.mem_ctrls.rdQLenPdf::22                      0                       # What read queue length does an incoming req see
system.mem_ctrls.rdQLenPdf::23                      0                       # What read queue length does an incoming req see
system.mem_ctrls.rdQLenPdf::24                      0                       # What read queue length does an incoming req see
system.mem_ctrls.rdQLenPdf::25                      0                       # What read queue length does an incoming req see
system.mem_ctrls.rdQLenPdf::26                      0                       # What read queue length does an incoming req see
system.mem_ctrls.rdQLenPdf::27                      0                       # What read queue length does an incoming req see
system.mem_ctrls.rdQLenPdf::28                      0                       # What read queue length does an incoming req see
system.mem_ctrls.rdQLenPdf::29                      0                       # What read queue length does an incoming req see
system.mem_ctrls.rdQLenPdf::30                      0                       # What read queue length does an incoming req see
system.mem_ctrls.rdQLenPdf::31                      0                       # What read queue length does an incoming req see
system.mem_ctrls.wrQLenPdf::0                       0                       # What write queue length does an incoming req see
system.mem_ctrls.wrQLenPdf::1                       0                       # What write queue length does an incoming req see
system.mem_ctrls.wrQLenPdf::2                       0                       # What write queue length does an incoming req see
system.mem_ctrls.wrQLenPdf::3                       0                       # What write queue length does an incoming req see
system.mem_ctrls.wrQLenPdf::4                       0                       # What write queue length does an incoming req see
system.mem_ctrls.wrQLenPdf::5                       0                       # What write queue length does an incoming req see
system.mem_ctrls.wrQLenPdf::6                       0                       # What write queue length does an incoming req see
system.mem_ctrls.wrQLenPdf::7                       0                       # What write queue length does an incoming req see
system.mem_ctrls.wrQLenPdf::8                       0                       # What write queue length does an incoming req see
system.mem_ctrls.wrQLenPdf::9                       0                       # What write queue length does an incoming req see
system.mem_ctrls.wrQLenPdf::10                      0                       # What write queue length does an incoming req see
system.mem_ctrls.wrQLenPdf::11                      0                       # What write queue length does an incoming req see
system.mem_ctrls.wrQLenPdf::12                      0                       # What write queue length does an incoming req see
system.mem_ctrls.wrQLenPdf::13                      0                       # What write queue length does an incoming req see
system.mem_ctrls.wrQLenPdf::14                      0                       # What write queue length does an incoming req see
system.mem_ctrls.wrQLenPdf::15                      0                       # What write queue length does an incoming req see
system.mem_ctrls.wrQLenPdf::16                      0                       # What write queue length does an incoming req see
system.mem_ctrls.wrQLenPdf::17                      0                       # What write queue length does an incoming req see
system.mem_ctrls.wrQLenPdf::18                      0                       # What write queue length does an incoming req see
system.mem_ctrls.wrQLenPdf::19                      0                       # What write queue length does an incoming req see
system.mem_ctrls.wrQLenPdf::20                      0                       # What write queue length does an incoming req see
system.mem_ctrls.wrQLenPdf::21                      0                       # What write queue length does an incoming req see
system.mem_ctrls.wrQLenPdf::22                      0                       # What write queue length does an incoming req see
system.mem_ctrls.wrQLenPdf::23                      0                       # What write queue length does an incoming req see
system.mem_ctrls.wrQLenPdf::24                      0                       # What write queue length does an incoming req see
system.mem_ctrls.wrQLenPdf::25                      0                       # What write queue length does an incoming req see
system.mem_ctrls.wrQLenPdf::26                      0                       # What write queue length does an incoming req see
system.mem_ctrls.wrQLenPdf::27                      0                       # What write queue length does an incoming req see
system.mem_ctrls.wrQLenPdf::28                      0                       # What write queue length does an incoming req see
system.mem_ctrls.wrQLenPdf::29                      0                       # What write queue length does an incoming req see
system.mem_ctrls.wrQLenPdf::30                      0                       # What write queue length does an incoming req see
system.mem_ctrls.wrQLenPdf::31                      0                       # What write queue length does an incoming req see
system.mem_ctrls.wrQLenPdf::32                      0                       # What write queue length does an incoming req see
system.mem_ctrls.wrQLenPdf::33                      0                       # What write queue length does an incoming req see
system.mem_ctrls.wrQLenPdf::34                      0                       # What write queue length does an incoming req see
system.mem_ctrls.wrQLenPdf::35                      0                       # What write queue length does an incoming req see
system.mem_ctrls.wrQLenPdf::36                      0                       # What write queue length does an incoming req see
system.mem_ctrls.wrQLenPdf::37                      0                       # What write queue length does an incoming req see
system.mem_ctrls.wrQLenPdf::38                      0                       # What write queue length does an incoming req see
system.mem_ctrls.wrQLenPdf::39                      0                       # What write queue length does an incoming req see
system.mem_ctrls.wrQLenPdf::40                      0                       # What write queue length does an incoming req see
system.mem_ctrls.wrQLenPdf::41                      0                       # What write queue length does an incoming req see
system.mem_ctrls.wrQLenPdf::42                      0                       # What write queue length does an incoming req see
system.mem_ctrls.wrQLenPdf::43                      0                       # What write queue length does an incoming req see
system.mem_ctrls.wrQLenPdf::44                      0                       # What write queue length does an incoming req see
system.mem_ctrls.wrQLenPdf::45                      0                       # What write queue length does an incoming req see
system.mem_ctrls.wrQLenPdf::46                      0                       # What write queue length does an incoming req see
system.mem_ctrls.wrQLenPdf::47                      0                       # What write queue length does an incoming req see
system.mem_ctrls.wrQLenPdf::48                      0                       # What write queue length does an incoming req see
system.mem_ctrls.wrQLenPdf::49                      0                       # What write queue length does an incoming req see
system.mem_ctrls.wrQLenPdf::50                      0                       # What write queue length does an incoming req see
system.mem_ctrls.wrQLenPdf::51                      0                       # What write queue length does an incoming req see
system.mem_ctrls.wrQLenPdf::52                      0                       # What write queue length does an incoming req see
system.mem_ctrls.wrQLenPdf::53                      0                       # What write queue length does an incoming req see
system.mem_ctrls.wrQLenPdf::54                      0                       # What write queue length does an incoming req see
system.mem_ctrls.wrQLenPdf::55                      0                       # What write queue length does an incoming req see
system.mem_ctrls.wrQLenPdf::56                      0                       # What write queue length does an incoming req see
system.mem_ctrls.wrQLenPdf::57                      0                       # What write queue length does an incoming req see
system.mem_ctrls.wrQLenPdf::58                      0                       # What write queue length does an incoming req see
system.mem_ctrls.wrQLenPdf::59                      0                       # What write queue length does an incoming req see
system.mem_ctrls.wrQLenPdf::60                      0                       # What write queue length does an incoming req see
system.mem_ctrls.wrQLenPdf::61                      0                       # What write queue length does an incoming req see
system.mem_ctrls.wrQLenPdf::62                      0                       # What write queue length does an incoming req see
system.mem_ctrls.wrQLenPdf::63                      0                       # What write queue length does an incoming req see
system.mem_ctrls.bytesPerActivate::samples          300                       # Bytes accessed per row activation
system.mem_ctrls.bytesPerActivate::mean    178.346667                       # Bytes accessed per row activation
system.mem_ctrls.bytesPerActivate::gmean   112.369915                       # Bytes accessed per row activation
system.mem_ctrls.bytesPerActivate::stdev   230.379387                       # Bytes accessed per row activation
system.mem_ctrls.bytesPerActivate::0-127          181     60.33%     60.33% # Bytes accessed per row activation
system.mem_ctrls.bytesPerActivate::128-255           62     20.67%     81.00% # Bytes accessed per row activation
system.mem_ctrls.bytesPerActivate::256-383           17      5.67%     86.67% # Bytes accessed per row activation
system.mem_ctrls.bytesPerActivate::384-511           11      3.67%     90.33% # Bytes accessed per row activation
system.mem_ctrls.bytesPerActivate::512-639            6      2.00%     92.33% # Bytes accessed per row activation
system.mem_ctrls.bytesPerActivate::640-767            4      1.33%     93.67% # Bytes accessed per row activation
system.mem_ctrls.bytesPerActivate::768-895            5      1.67%     95.33% # Bytes accessed per row activation
system.mem_ctrls.bytesPerActivate::896-1023            5      1.67%     97.00% # Bytes accessed per row activation
system.mem_ctrls.bytesPerActivate::1024-1151            9      3.00%    100.00% # Bytes accessed per row activation
system.mem_ctrls.bytesPerActivate::total          300                       # Bytes accessed per row activation
system.mem_ctrls.totQLat                     29515500                       # Total ticks spent queuing
system.mem_ctrls.totMemAccLat                45865500                       # Total ticks spent from burst creation until serviced by the DRAM
system.mem_ctrls.totBusLat                    4360000                       # Total ticks spent in databus transfers
system.mem_ctrls.avgQLat                     33848.05                       # Average queueing delay per DRAM burst
system.mem_ctrls.avgBusLat                    5000.00                       # Average bus latency per DRAM burst
system.mem_ctrls.avgMemAccLat                52598.05                       # Average memory access latency per DRAM burst
system.mem_ctrls.avgRdBW                         0.11                       # Average DRAM read bandwidth in MiByte/s
system.mem_ctrls.avgWrBW                         0.00                       # Average achieved write bandwidth in MiByte/s
system.mem_ctrls.avgRdBWSys                      0.11                       # Average system read bandwidth in MiByte/s
system.mem_ctrls.avgWrBWSys                      0.00                       # Average system write bandwidth in MiByte/s
system.mem_ctrls.peakBW                      12800.00                       # Theoretical peak bandwidth in MiByte/s
system.mem_ctrls.busUtil                         0.00                       # Data bus utilization in percentage
system.mem_ctrls.busUtilRead                     0.00                       # Data bus utilization in percentage for reads
system.mem_ctrls.busUtilWrite                    0.00                       # Data bus utilization in percentage for writes
system.mem_ctrls.avgRdQLen                       1.00                       # Average read queue length when enqueuing
system.mem_ctrls.avgWrQLen                       0.00                       # Average write queue length when enqueuing
system.mem_ctrls.readRowHits                      565                       # Number of row buffer hits during reads
system.mem_ctrls.writeRowHits                       0                       # Number of row buffer hits during writes
system.mem_ctrls.readRowHitRate                 64.79                       # Row buffer hit rate for reads
system.mem_ctrls.writeRowHitRate                  nan                       # Row buffer hit rate for writes
system.mem_ctrls.avgGap                  590944041.28                       # Average gap between requests
system.mem_ctrls.pageHitRate                    64.79                       # Row buffer hit rate, read and write combined
system.mem_ctrls_0.actEnergy                   542640                       # Energy for activate commands per rank (pJ)
system.mem_ctrls_0.preEnergy                   265650                       # Energy for precharge commands per rank (pJ)
system.mem_ctrls_0.readEnergy                 2606100                       # Energy for read commands per rank (pJ)
system.mem_ctrls_0.writeEnergy                      0                       # Energy for write commands per rank (pJ)
system.mem_ctrls_0.refreshEnergy         12907440.000000                       # Energy for refresh commands per rank (pJ)
system.mem_ctrls_0.actBackEnergy              7547370                       # Energy for active background per rank (pJ)
system.mem_ctrls_0.preBackEnergy               462720                       # Energy for precharge background per rank (pJ)
system.mem_ctrls_0.actPowerDownEnergy        50574960                       # Energy for active power-down per rank (pJ)
system.mem_ctrls_0.prePowerDownEnergy        10355520                       # Energy for precharge power-down per rank (pJ)
system.mem_ctrls_0.selfRefreshEnergy     123636549780                       # Energy for self refresh per rank (pJ)
system.mem_ctrls_0.totalEnergy           123721812180                       # Total energy per rank (pJ)
system.mem_ctrls_0.averagePower            240.095118                       # Core power per rank (mW)
system.mem_ctrls_0.totalIdleTime         515285052500                       # Total Idle time Per DRAM Rank
system.mem_ctrls_0.memoryStateTime::IDLE       644000                       # Time in different power states
system.mem_ctrls_0.memoryStateTime::REF       5472000                       # Time in different power states
system.mem_ctrls_0.memoryStateTime::SREF 515147687500                       # Time in different power states
system.mem_ctrls_0.memoryStateTime::PRE_PDN     26965500                       # Time in different power states
system.mem_ctrls_0.memoryStateTime::ACT      11644250                       # Time in different power states
system.mem_ctrls_0.memoryStateTime::ACT_PDN    110908750                       # Time in different power states
system.mem_ctrls_1.actEnergy                  1649340                       # Energy for activate commands per rank (pJ)
system.mem_ctrls_1.preEnergy                   872850                       # Energy for precharge commands per rank (pJ)
system.mem_ctrls_1.readEnergy                 3619980                       # Energy for read commands per rank (pJ)
system.mem_ctrls_1.writeEnergy                      0                       # Energy for write commands per rank (pJ)
system.mem_ctrls_1.refreshEnergy         115552320.000000                       # Energy for refresh commands per rank (pJ)
system.mem_ctrls_1.actBackEnergy             28707480                       # Energy for active background per rank (pJ)
system.mem_ctrls_1.preBackEnergy              5167680                       # Energy for precharge background per rank (pJ)
system.mem_ctrls_1.actPowerDownEnergy       234995610                       # Energy for active power-down per rank (pJ)
system.mem_ctrls_1.prePowerDownEnergy       252364800                       # Energy for precharge power-down per rank (pJ)
system.mem_ctrls_1.selfRefreshEnergy     123389615700                       # Energy for self refresh per rank (pJ)
system.mem_ctrls_1.totalEnergy           124032545760                       # Total energy per rank (pJ)
system.mem_ctrls_1.averagePower            240.698129                       # Core power per rank (mW)
system.mem_ctrls_1.totalIdleTime         515226830750                       # Total Idle time Per DRAM Rank
system.mem_ctrls_1.memoryStateTime::IDLE      8850000                       # Time in different power states
system.mem_ctrls_1.memoryStateTime::REF      49060000                       # Time in different power states
system.mem_ctrls_1.memoryStateTime::SREF 514054369500                       # Time in different power states
system.mem_ctrls_1.memoryStateTime::PRE_PDN    657200250                       # Time in different power states
system.mem_ctrls_1.memoryStateTime::ACT      18520000                       # Time in different power states
system.mem_ctrls_1.memoryStateTime::ACT_PDN    515322250                       # Time in different power states
system.pwrStateResidencyTicks::UNDEFINED 515303322000                       # Cumulative time (in ticks) in various power states
system.cpu_voltage_domain.voltage                   1                       # Voltage in Volts
system.cpu_clk_domain.clock                       500                       # Clock period in ticks
system.cpu.dtb.walker.pwrStateResidencyTicks::UNDEFINED 515303322000                       # Cumulative time (in ticks) in various power states
system.cpu.apic_clk_domain.clock                 8000                       # Clock period in ticks
system.cpu.interrupts.pwrStateResidencyTicks::UNDEFINED 515303322000                       # Cumulative time (in ticks) in various power states
system.cpu.itb.walker.pwrStateResidencyTicks::UNDEFINED 515303322000                       # Cumulative time (in ticks) in various power states
system.cpu.workload.num_syscalls                  412                       # Number of system calls
system.cpu.pwrStateResidencyTicks::ON    515303322000                       # Cumulative time (in ticks) in various power states
system.cpu.numCycles                       1030606644                       # number of cpu cycles simulated
system.cpu.numWorkItemsStarted                      0                       # number of work items this cpu started
system.cpu.numWorkItemsCompleted                    0                       # number of work items this cpu completed
system.cpu.committedInsts                   268587998                       # Number of instructions committed
system.cpu.committedOps                     364129638                       # Number of ops (including micro ops) committed
system.cpu.num_int_alu_accesses             364026647                       # Number of integer alu accesses
system.cpu.num_fp_alu_accesses                1624353                       # Number of float alu accesses
system.cpu.num_func_calls                      308829                       # number of times a function call or return occured
system.cpu.num_conditional_control_insts      9149709                       # number of instructions that are conditional controls
system.cpu.num_int_insts                    364026647                       # number of integer instructions
system.cpu.num_fp_insts                       1624353                       # number of float instructions
system.cpu.num_int_register_reads           833095301                       # number of times the integer registers were read
system.cpu.num_int_register_writes          310510899                       # number of times the integer registers were written
system.cpu.num_fp_register_reads               812687                       # number of times the floating registers were read
system.cpu.num_fp_register_writes              812221                       # number of times the floating registers were written
system.cpu.num_cc_register_reads             91076211                       # number of times the CC registers were read
system.cpu.num_cc_register_writes           183748142                       # number of times the CC registers were written
system.cpu.num_mem_refs                     163084617                       # number of memory refs
system.cpu.num_load_insts                   120189957                       # Number of load instructions
system.cpu.num_store_insts                   42894660                       # Number of store instructions
system.cpu.num_idle_cycles                   0.002000                       # Number of idle cycles
system.cpu.num_busy_cycles               1030606643.998000                       # Number of busy cycles
system.cpu.not_idle_fraction                 1.000000                       # Percentage of non-idle cycles
system.cpu.idle_fraction                     0.000000                       # Percentage of idle cycles
system.cpu.Branches                           9815183                       # Number of branches fetched
system.cpu.op_class::No_OpClass                   452      0.00%      0.00% # Class of executed instruction
system.cpu.op_class::IntAlu                 201041053     55.21%     55.21% # Class of executed instruction
system.cpu.op_class::IntMult                      402      0.00%     55.21% # Class of executed instruction
system.cpu.op_class::IntDiv                      2828      0.00%     55.21% # Class of executed instruction
system.cpu.op_class::FloatAdd                     286      0.00%     55.21% # Class of executed instruction
system.cpu.op_class::FloatCmp                       0      0.00%     55.21% # Class of executed instruction
system.cpu.op_class::FloatCvt                       0      0.00%     55.21% # Class of executed instruction
system.cpu.op_class::FloatMult                      0      0.00%     55.21% # Class of executed instruction
system.cpu.op_class::FloatMultAcc                   0      0.00%     55.21% # Class of executed instruction
system.cpu.op_class::FloatDiv                       0      0.00%     55.21% # Class of executed instruction
system.cpu.op_class::FloatMisc                      0      0.00%     55.21% # Class of executed instruction
system.cpu.op_class::FloatSqrt                      0      0.00%     55.21% # Class of executed instruction
system.cpu.op_class::SimdAdd                        0      0.00%     55.21% # Class of executed instruction
system.cpu.op_class::SimdAddAcc                     0      0.00%     55.21% # Class of executed instruction
system.cpu.op_class::SimdAlu                        0      0.00%     55.21% # Class of executed instruction
system.cpu.op_class::SimdCmp                        0      0.00%     55.21% # Class of executed instruction
system.cpu.op_class::SimdCvt                        0      0.00%     55.21% # Class of executed instruction
system.cpu.op_class::SimdMisc                       0      0.00%     55.21% # Class of executed instruction
system.cpu.op_class::SimdMult                       0      0.00%     55.21% # Class of executed instruction
system.cpu.op_class::SimdMultAcc                    0      0.00%     55.21% # Class of executed instruction
system.cpu.op_class::SimdShift                      0      0.00%     55.21% # Class of executed instruction
system.cpu.op_class::SimdShiftAcc                   0      0.00%     55.21% # Class of executed instruction
system.cpu.op_class::SimdSqrt                       0      0.00%     55.21% # Class of executed instruction
system.cpu.op_class::SimdFloatAdd                   0      0.00%     55.21% # Class of executed instruction
system.cpu.op_class::SimdFloatAlu                   0      0.00%     55.21% # Class of executed instruction
system.cpu.op_class::SimdFloatCmp                   0      0.00%     55.21% # Class of executed instruction
system.cpu.op_class::SimdFloatCvt                   0      0.00%     55.21% # Class of executed instruction
system.cpu.op_class::SimdFloatDiv                   0      0.00%     55.21% # Class of executed instruction
system.cpu.op_class::SimdFloatMisc                  0      0.00%     55.21% # Class of executed instruction
system.cpu.op_class::SimdFloatMult                  0      0.00%     55.21% # Class of executed instruction
system.cpu.op_class::SimdFloatMultAcc               0      0.00%     55.21% # Class of executed instruction
system.cpu.op_class::SimdFloatSqrt                  0      0.00%     55.21% # Class of executed instruction
system.cpu.op_class::MemRead                119377993     32.78%     88.00% # Class of executed instruction
system.cpu.op_class::MemWrite                42082584     11.56%     99.55% # Class of executed instruction
system.cpu.op_class::FloatMemRead              811964      0.22%     99.78% # Class of executed instruction
system.cpu.op_class::FloatMemWrite             812076      0.22%    100.00% # Class of executed instruction
system.cpu.op_class::IprAccess                      0      0.00%    100.00% # Class of executed instruction
system.cpu.op_class::InstPrefetch                   0      0.00%    100.00% # Class of executed instruction
system.cpu.op_class::total                  364129638                       # Class of executed instruction
system.cpu.dcache.tags.pwrStateResidencyTicks::UNDEFINED 515303322000                       # Cumulative time (in ticks) in various power states
system.cpu.dcache.tags.replacements                 1                       # number of replacements
system.cpu.dcache.tags.tagsinuse           298.833157                       # Cycle average of tags in use
system.cpu.dcache.tags.total_refs           163084300                       # Total number of references to valid blocks.
system.cpu.dcache.tags.sampled_refs               327                       # Sample count of references to valid blocks.
system.cpu.dcache.tags.avg_refs          498728.746177                       # Average number of references to valid blocks.
system.cpu.dcache.tags.warmup_cycle                 0                       # Cycle when the warmup percentage was hit.
system.cpu.dcache.tags.occ_blocks::cpu.data   298.833157                       # Average occupied blocks per requestor
system.cpu.dcache.tags.occ_percent::cpu.data     0.291829                       # Average percentage of cache occupancy
system.cpu.dcache.tags.occ_percent::total     0.291829                       # Average percentage of cache occupancy
system.cpu.dcache.tags.occ_task_id_blocks::1024          326                       # Occupied blocks per task id
system.cpu.dcache.tags.age_task_id_blocks_1024::0           12                       # Occupied blocks per task id
system.cpu.dcache.tags.age_task_id_blocks_1024::1           15                       # Occupied blocks per task id
system.cpu.dcache.tags.age_task_id_blocks_1024::2            1                       # Occupied blocks per task id
system.cpu.dcache.tags.age_task_id_blocks_1024::4          298                       # Occupied blocks per task id
system.cpu.dcache.tags.occ_task_id_percent::1024     0.318359                       # Percentage of cache occupancy per task id
system.cpu.dcache.tags.tag_accesses         326169581                       # Number of tag accesses
system.cpu.dcache.tags.data_accesses        326169581                       # Number of data accesses
system.cpu.dcache.pwrStateResidencyTicks::UNDEFINED 515303322000                       # Cumulative time (in ticks) in various power states
system.cpu.dcache.ReadReq_hits::cpu.data    120189757                       # number of ReadReq hits
system.cpu.dcache.ReadReq_hits::total       120189757                       # number of ReadReq hits
system.cpu.dcache.WriteReq_hits::cpu.data     42894543                       # number of WriteReq hits
system.cpu.dcache.WriteReq_hits::total       42894543                       # number of WriteReq hits
system.cpu.dcache.demand_hits::cpu.data     163084300                       # number of demand (read+write) hits
system.cpu.dcache.demand_hits::total        163084300                       # number of demand (read+write) hits
system.cpu.dcache.overall_hits::cpu.data    163084300                       # number of overall hits
system.cpu.dcache.overall_hits::total       163084300                       # number of overall hits
system.cpu.dcache.ReadReq_misses::cpu.data          208                       # number of ReadReq misses
system.cpu.dcache.ReadReq_misses::total           208                       # number of ReadReq misses
system.cpu.dcache.WriteReq_misses::cpu.data          119                       # number of WriteReq misses
system.cpu.dcache.WriteReq_misses::total          119                       # number of WriteReq misses
system.cpu.dcache.demand_misses::cpu.data          327                       # number of demand (read+write) misses
system.cpu.dcache.demand_misses::total            327                       # number of demand (read+write) misses
system.cpu.dcache.overall_misses::cpu.data          327                       # number of overall misses
system.cpu.dcache.overall_misses::total           327                       # number of overall misses
system.cpu.dcache.ReadReq_miss_latency::cpu.data     41921000                       # number of ReadReq miss cycles
system.cpu.dcache.ReadReq_miss_latency::total     41921000                       # number of ReadReq miss cycles
system.cpu.dcache.WriteReq_miss_latency::cpu.data     14409000                       # number of WriteReq miss cycles
system.cpu.dcache.WriteReq_miss_latency::total     14409000                       # number of WriteReq miss cycles
system.cpu.dcache.demand_miss_latency::cpu.data     56330000                       # number of demand (read+write) miss cycles
system.cpu.dcache.demand_miss_latency::total     56330000                       # number of demand (read+write) miss cycles
system.cpu.dcache.overall_miss_latency::cpu.data     56330000                       # number of overall miss cycles
system.cpu.dcache.overall_miss_latency::total     56330000                       # number of overall miss cycles
system.cpu.dcache.ReadReq_accesses::cpu.data    120189965                       # number of ReadReq accesses(hits+misses)
system.cpu.dcache.ReadReq_accesses::total    120189965                       # number of ReadReq accesses(hits+misses)
system.cpu.dcache.WriteReq_accesses::cpu.data     42894662                       # number of WriteReq accesses(hits+misses)
system.cpu.dcache.WriteReq_accesses::total     42894662                       # number of WriteReq accesses(hits+misses)
system.cpu.dcache.demand_accesses::cpu.data    163084627                       # number of demand (read+write) accesses
system.cpu.dcache.demand_accesses::total    163084627                       # number of demand (read+write) accesses
system.cpu.dcache.overall_accesses::cpu.data    163084627                       # number of overall (read+write) accesses
system.cpu.dcache.overall_accesses::total    163084627                       # number of overall (read+write) accesses
system.cpu.dcache.ReadReq_miss_rate::cpu.data     0.000002                       # miss rate for ReadReq accesses
system.cpu.dcache.ReadReq_miss_rate::total     0.000002                       # miss rate for ReadReq accesses
system.cpu.dcache.WriteReq_miss_rate::cpu.data     0.000003                       # miss rate for WriteReq accesses
system.cpu.dcache.WriteReq_miss_rate::total     0.000003                       # miss rate for WriteReq accesses
system.cpu.dcache.demand_miss_rate::cpu.data     0.000002                       # miss rate for demand accesses
system.cpu.dcache.demand_miss_rate::total     0.000002                       # miss rate for demand accesses
system.cpu.dcache.overall_miss_rate::cpu.data     0.000002                       # miss rate for overall accesses
system.cpu.dcache.overall_miss_rate::total     0.000002                       # miss rate for overall accesses
system.cpu.dcache.ReadReq_avg_miss_latency::cpu.data 201543.269231                       # average ReadReq miss latency
system.cpu.dcache.ReadReq_avg_miss_latency::total 201543.269231                       # average ReadReq miss latency
system.cpu.dcache.WriteReq_avg_miss_latency::cpu.data 121084.033613                       # average WriteReq miss latency
system.cpu.dcache.WriteReq_avg_miss_latency::total 121084.033613                       # average WriteReq miss latency
system.cpu.dcache.demand_avg_miss_latency::cpu.data 172262.996942                       # average overall miss latency
system.cpu.dcache.demand_avg_miss_latency::total 172262.996942                       # average overall miss latency
system.cpu.dcache.overall_avg_miss_latency::cpu.data 172262.996942                       # average overall miss latency
system.cpu.dcache.overall_avg_miss_latency::total 172262.996942                       # average overall miss latency
system.cpu.dcache.blocked_cycles::no_mshrs            0                       # number of cycles access was blocked
system.cpu.dcache.blocked_cycles::no_targets            0                       # number of cycles access was blocked
system.cpu.dcache.blocked::no_mshrs                 0                       # number of cycles access was blocked
system.cpu.dcache.blocked::no_targets               0                       # number of cycles access was blocked
system.cpu.dcache.avg_blocked_cycles::no_mshrs          nan                       # average number of cycles each access was blocked
system.cpu.dcache.avg_blocked_cycles::no_targets          nan                       # average number of cycles each access was blocked
system.cpu.dcache.ReadReq_mshr_misses::cpu.data          208                       # number of ReadReq MSHR misses
system.cpu.dcache.ReadReq_mshr_misses::total          208                       # number of ReadReq MSHR misses
system.cpu.dcache.WriteReq_mshr_misses::cpu.data          119                       # number of WriteReq MSHR misses
system.cpu.dcache.WriteReq_mshr_misses::total          119                       # number of WriteReq MSHR misses
system.cpu.dcache.demand_mshr_misses::cpu.data          327                       # number of demand (read+write) MSHR misses
system.cpu.dcache.demand_mshr_misses::total          327                       # number of demand (read+write) MSHR misses
system.cpu.dcache.overall_mshr_misses::cpu.data          327                       # number of overall MSHR misses
system.cpu.dcache.overall_mshr_misses::total          327                       # number of overall MSHR misses
system.cpu.dcache.ReadReq_mshr_miss_latency::cpu.data     41713000                       # number of ReadReq MSHR miss cycles
system.cpu.dcache.ReadReq_mshr_miss_latency::total     41713000                       # number of ReadReq MSHR miss cycles
system.cpu.dcache.WriteReq_mshr_miss_latency::cpu.data     14290000                       # number of WriteReq MSHR miss cycles
system.cpu.dcache.WriteReq_mshr_miss_latency::total     14290000                       # number of WriteReq MSHR miss cycles
system.cpu.dcache.demand_mshr_miss_latency::cpu.data     56003000                       # number of demand (read+write) MSHR miss cycles
system.cpu.dcache.demand_mshr_miss_latency::total     56003000                       # number of demand (read+write) MSHR miss cycles
system.cpu.dcache.overall_mshr_miss_latency::cpu.data     56003000                       # number of overall MSHR miss cycles
system.cpu.dcache.overall_mshr_miss_latency::total     56003000                       # number of overall MSHR miss cycles
system.cpu.dcache.ReadReq_mshr_miss_rate::cpu.data     0.000002                       # mshr miss rate for ReadReq accesses
system.cpu.dcache.ReadReq_mshr_miss_rate::total     0.000002                       # mshr miss rate for ReadReq accesses
system.cpu.dcache.WriteReq_mshr_miss_rate::cpu.data     0.000003                       # mshr miss rate for WriteReq accesses
system.cpu.dcache.WriteReq_mshr_miss_rate::total     0.000003                       # mshr miss rate for WriteReq accesses
system.cpu.dcache.demand_mshr_miss_rate::cpu.data     0.000002                       # mshr miss rate for demand accesses
system.cpu.dcache.demand_mshr_miss_rate::total     0.000002                       # mshr miss rate for demand accesses
system.cpu.dcache.overall_mshr_miss_rate::cpu.data     0.000002                       # mshr miss rate for overall accesses
system.cpu.dcache.overall_mshr_miss_rate::total     0.000002                       # mshr miss rate for overall accesses
system.cpu.dcache.ReadReq_avg_mshr_miss_latency::cpu.data 200543.269231                       # average ReadReq mshr miss latency
system.cpu.dcache.ReadReq_avg_mshr_miss_latency::total 200543.269231                       # average ReadReq mshr miss latency
system.cpu.dcache.WriteReq_avg_mshr_miss_latency::cpu.data 120084.033613                       # average WriteReq mshr miss latency
system.cpu.dcache.WriteReq_avg_mshr_miss_latency::total 120084.033613                       # average WriteReq mshr miss latency
system.cpu.dcache.demand_avg_mshr_miss_latency::cpu.data 171262.996942                       # average overall mshr miss latency
system.cpu.dcache.demand_avg_mshr_miss_latency::total 171262.996942                       # average overall mshr miss latency
system.cpu.dcache.overall_avg_mshr_miss_latency::cpu.data 171262.996942                       # average overall mshr miss latency
system.cpu.dcache.overall_avg_mshr_miss_latency::total 171262.996942                       # average overall mshr miss latency
system.cpu.dtb_walker_cache.tags.pwrStateResidencyTicks::UNDEFINED 515303322000                       # Cumulative time (in ticks) in various power states
system.cpu.dtb_walker_cache.tags.replacements            0                       # number of replacements
system.cpu.dtb_walker_cache.tags.tagsinuse            0                       # Cycle average of tags in use
system.cpu.dtb_walker_cache.tags.total_refs            0                       # Total number of references to valid blocks.
system.cpu.dtb_walker_cache.tags.sampled_refs            0                       # Sample count of references to valid blocks.
system.cpu.dtb_walker_cache.tags.avg_refs          nan                       # Average number of references to valid blocks.
system.cpu.dtb_walker_cache.tags.warmup_cycle            0                       # Cycle when the warmup percentage was hit.
system.cpu.dtb_walker_cache.tags.tag_accesses            0                       # Number of tag accesses
system.cpu.dtb_walker_cache.tags.data_accesses            0                       # Number of data accesses
system.cpu.dtb_walker_cache.pwrStateResidencyTicks::UNDEFINED 515303322000                       # Cumulative time (in ticks) in various power states
system.cpu.dtb_walker_cache.blocked_cycles::no_mshrs            0                       # number of cycles access was blocked
system.cpu.dtb_walker_cache.blocked_cycles::no_targets            0                       # number of cycles access was blocked
system.cpu.dtb_walker_cache.blocked::no_mshrs            0                       # number of cycles access was blocked
system.cpu.dtb_walker_cache.blocked::no_targets            0                       # number of cycles access was blocked
system.cpu.dtb_walker_cache.avg_blocked_cycles::no_mshrs          nan                       # average number of cycles each access was blocked
system.cpu.dtb_walker_cache.avg_blocked_cycles::no_targets          nan                       # average number of cycles each access was blocked
system.cpu.icache.tags.pwrStateResidencyTicks::UNDEFINED 515303322000                       # Cumulative time (in ticks) in various power states
system.cpu.icache.tags.replacements               176                       # number of replacements
system.cpu.icache.tags.tagsinuse           288.996505                       # Cycle average of tags in use
system.cpu.icache.tags.total_refs           352095110                       # Total number of references to valid blocks.
system.cpu.icache.tags.sampled_refs               565                       # Sample count of references to valid blocks.
system.cpu.icache.tags.avg_refs          623177.185841                       # Average number of references to valid blocks.
system.cpu.icache.tags.warmup_cycle                 0                       # Cycle when the warmup percentage was hit.
system.cpu.icache.tags.occ_blocks::cpu.inst   288.996505                       # Average occupied blocks per requestor
system.cpu.icache.tags.occ_percent::cpu.inst     0.564446                       # Average percentage of cache occupancy
system.cpu.icache.tags.occ_percent::total     0.564446                       # Average percentage of cache occupancy
system.cpu.icache.tags.occ_task_id_blocks::1024          389                       # Occupied blocks per task id
system.cpu.icache.tags.age_task_id_blocks_1024::0           62                       # Occupied blocks per task id
system.cpu.icache.tags.age_task_id_blocks_1024::1          109                       # Occupied blocks per task id
system.cpu.icache.tags.age_task_id_blocks_1024::2           14                       # Occupied blocks per task id
system.cpu.icache.tags.age_task_id_blocks_1024::4          204                       # Occupied blocks per task id
system.cpu.icache.tags.occ_task_id_percent::1024     0.759766                       # Percentage of cache occupancy per task id
system.cpu.icache.tags.tag_accesses         704191915                       # Number of tag accesses
system.cpu.icache.tags.data_accesses        704191915                       # Number of data accesses
system.cpu.icache.pwrStateResidencyTicks::UNDEFINED 515303322000                       # Cumulative time (in ticks) in various power states
system.cpu.icache.ReadReq_hits::cpu.inst    352095110                       # number of ReadReq hits
system.cpu.icache.ReadReq_hits::total       352095110                       # number of ReadReq hits
system.cpu.icache.demand_hits::cpu.inst     352095110                       # number of demand (read+write) hits
system.cpu.icache.demand_hits::total        352095110                       # number of demand (read+write) hits
system.cpu.icache.overall_hits::cpu.inst    352095110                       # number of overall hits
system.cpu.icache.overall_hits::total       352095110                       # number of overall hits
system.cpu.icache.ReadReq_misses::cpu.inst          565                       # number of ReadReq misses
system.cpu.icache.ReadReq_misses::total           565                       # number of ReadReq misses
system.cpu.icache.demand_misses::cpu.inst          565                       # number of demand (read+write) misses
system.cpu.icache.demand_misses::total            565                       # number of demand (read+write) misses
system.cpu.icache.overall_misses::cpu.inst          565                       # number of overall misses
system.cpu.icache.overall_misses::total           565                       # number of overall misses
system.cpu.icache.ReadReq_miss_latency::cpu.inst     67717000                       # number of ReadReq miss cycles
system.cpu.icache.ReadReq_miss_latency::total     67717000                       # number of ReadReq miss cycles
system.cpu.icache.demand_miss_latency::cpu.inst     67717000                       # number of demand (read+write) miss cycles
system.cpu.icache.demand_miss_latency::total     67717000                       # number of demand (read+write) miss cycles
system.cpu.icache.overall_miss_latency::cpu.inst     67717000                       # number of overall miss cycles
system.cpu.icache.overall_miss_latency::total     67717000                       # number of overall miss cycles
system.cpu.icache.ReadReq_accesses::cpu.inst    352095675                       # number of ReadReq accesses(hits+misses)
system.cpu.icache.ReadReq_accesses::total    352095675                       # number of ReadReq accesses(hits+misses)
system.cpu.icache.demand_accesses::cpu.inst    352095675                       # number of demand (read+write) accesses
system.cpu.icache.demand_accesses::total    352095675                       # number of demand (read+write) accesses
system.cpu.icache.overall_accesses::cpu.inst    352095675                       # number of overall (read+write) accesses
system.cpu.icache.overall_accesses::total    352095675                       # number of overall (read+write) accesses
system.cpu.icache.ReadReq_miss_rate::cpu.inst     0.000002                       # miss rate for ReadReq accesses
system.cpu.icache.ReadReq_miss_rate::total     0.000002                       # miss rate for ReadReq accesses
system.cpu.icache.demand_miss_rate::cpu.inst     0.000002                       # miss rate for demand accesses
system.cpu.icache.demand_miss_rate::total     0.000002                       # miss rate for demand accesses
system.cpu.icache.overall_miss_rate::cpu.inst     0.000002                       # miss rate for overall accesses
system.cpu.icache.overall_miss_rate::total     0.000002                       # miss rate for overall accesses
system.cpu.icache.ReadReq_avg_miss_latency::cpu.inst 119853.097345                       # average ReadReq miss latency
system.cpu.icache.ReadReq_avg_miss_latency::total 119853.097345                       # average ReadReq miss latency
system.cpu.icache.demand_avg_miss_latency::cpu.inst 119853.097345                       # average overall miss latency
system.cpu.icache.demand_avg_miss_latency::total 119853.097345                       # average overall miss latency
system.cpu.icache.overall_avg_miss_latency::cpu.inst 119853.097345                       # average overall miss latency
system.cpu.icache.overall_avg_miss_latency::total 119853.097345                       # average overall miss latency
system.cpu.icache.blocked_cycles::no_mshrs            0                       # number of cycles access was blocked
system.cpu.icache.blocked_cycles::no_targets            0                       # number of cycles access was blocked
system.cpu.icache.blocked::no_mshrs                 0                       # number of cycles access was blocked
system.cpu.icache.blocked::no_targets               0                       # number of cycles access was blocked
system.cpu.icache.avg_blocked_cycles::no_mshrs          nan                       # average number of cycles each access was blocked
system.cpu.icache.avg_blocked_cycles::no_targets          nan                       # average number of cycles each access was blocked
system.cpu.icache.ReadReq_mshr_misses::cpu.inst          565                       # number of ReadReq MSHR misses
system.cpu.icache.ReadReq_mshr_misses::total          565                       # number of ReadReq MSHR misses
system.cpu.icache.demand_mshr_misses::cpu.inst          565                       # number of demand (read+write) MSHR misses
system.cpu.icache.demand_mshr_misses::total          565                       # number of demand (read+write) MSHR misses
system.cpu.icache.overall_mshr_misses::cpu.inst          565                       # number of overall MSHR misses
system.cpu.icache.overall_mshr_misses::total          565                       # number of overall MSHR misses
system.cpu.icache.ReadReq_mshr_miss_latency::cpu.inst     67152000                       # number of ReadReq MSHR miss cycles
system.cpu.icache.ReadReq_mshr_miss_latency::total     67152000                       # number of ReadReq MSHR miss cycles
system.cpu.icache.demand_mshr_miss_latency::cpu.inst     67152000                       # number of demand (read+write) MSHR miss cycles
system.cpu.icache.demand_mshr_miss_latency::total     67152000                       # number of demand (read+write) MSHR miss cycles
system.cpu.icache.overall_mshr_miss_latency::cpu.inst     67152000                       # number of overall MSHR miss cycles
system.cpu.icache.overall_mshr_miss_latency::total     67152000                       # number of overall MSHR miss cycles
system.cpu.icache.ReadReq_mshr_miss_rate::cpu.inst     0.000002                       # mshr miss rate for ReadReq accesses
system.cpu.icache.ReadReq_mshr_miss_rate::total     0.000002                       # mshr miss rate for ReadReq accesses
system.cpu.icache.demand_mshr_miss_rate::cpu.inst     0.000002                       # mshr miss rate for demand accesses
system.cpu.icache.demand_mshr_miss_rate::total     0.000002                       # mshr miss rate for demand accesses
system.cpu.icache.overall_mshr_miss_rate::cpu.inst     0.000002                       # mshr miss rate for overall accesses
system.cpu.icache.overall_mshr_miss_rate::total     0.000002                       # mshr miss rate for overall accesses
system.cpu.icache.ReadReq_avg_mshr_miss_latency::cpu.inst 118853.097345                       # average ReadReq mshr miss latency
system.cpu.icache.ReadReq_avg_mshr_miss_latency::total 118853.097345                       # average ReadReq mshr miss latency
system.cpu.icache.demand_avg_mshr_miss_latency::cpu.inst 118853.097345                       # average overall mshr miss latency
system.cpu.icache.demand_avg_mshr_miss_latency::total 118853.097345                       # average overall mshr miss latency
system.cpu.icache.overall_avg_mshr_miss_latency::cpu.inst 118853.097345                       # average overall mshr miss latency
system.cpu.icache.overall_avg_mshr_miss_latency::total 118853.097345                       # average overall mshr miss latency
system.cpu.itb_walker_cache.tags.pwrStateResidencyTicks::UNDEFINED 515303322000                       # Cumulative time (in ticks) in various power states
system.cpu.itb_walker_cache.tags.replacements            0                       # number of replacements
system.cpu.itb_walker_cache.tags.tagsinuse            0                       # Cycle average of tags in use
system.cpu.itb_walker_cache.tags.total_refs            0                       # Total number of references to valid blocks.
system.cpu.itb_walker_cache.tags.sampled_refs            0                       # Sample count of references to valid blocks.
system.cpu.itb_walker_cache.tags.avg_refs          nan                       # Average number of references to valid blocks.
system.cpu.itb_walker_cache.tags.warmup_cycle            0                       # Cycle when the warmup percentage was hit.
system.cpu.itb_walker_cache.tags.tag_accesses            0                       # Number of tag accesses
system.cpu.itb_walker_cache.tags.data_accesses            0                       # Number of data accesses
system.cpu.itb_walker_cache.pwrStateResidencyTicks::UNDEFINED 515303322000                       # Cumulative time (in ticks) in various power states
system.cpu.itb_walker_cache.blocked_cycles::no_mshrs            0                       # number of cycles access was blocked
system.cpu.itb_walker_cache.blocked_cycles::no_targets            0                       # number of cycles access was blocked
system.cpu.itb_walker_cache.blocked::no_mshrs            0                       # number of cycles access was blocked
system.cpu.itb_walker_cache.blocked::no_targets            0                       # number of cycles access was blocked
system.cpu.itb_walker_cache.avg_blocked_cycles::no_mshrs          nan                       # average number of cycles each access was blocked
system.cpu.itb_walker_cache.avg_blocked_cycles::no_targets          nan                       # average number of cycles each access was blocked
system.cpu.l2cache.tags.pwrStateResidencyTicks::UNDEFINED 515303322000                       # Cumulative time (in ticks) in various power states
system.cpu.l2cache.tags.replacements                0                       # number of replacements
system.cpu.l2cache.tags.tagsinuse          645.832296                       # Cycle average of tags in use
system.cpu.l2cache.tags.total_refs                196                       # Total number of references to valid blocks.
system.cpu.l2cache.tags.sampled_refs              872                       # Sample count of references to valid blocks.
system.cpu.l2cache.tags.avg_refs             0.224771                       # Average number of references to valid blocks.
system.cpu.l2cache.tags.warmup_cycle                0                       # Cycle when the warmup percentage was hit.
system.cpu.l2cache.tags.occ_blocks::cpu.inst   346.999072                       # Average occupied blocks per requestor
system.cpu.l2cache.tags.occ_blocks::cpu.data   298.833223                       # Average occupied blocks per requestor
system.cpu.l2cache.tags.occ_percent::cpu.inst     0.084717                       # Average percentage of cache occupancy
system.cpu.l2cache.tags.occ_percent::cpu.data     0.072957                       # Average percentage of cache occupancy
system.cpu.l2cache.tags.occ_percent::total     0.157674                       # Average percentage of cache occupancy
system.cpu.l2cache.tags.occ_task_id_blocks::1024          872                       # Occupied blocks per task id
system.cpu.l2cache.tags.age_task_id_blocks_1024::0           73                       # Occupied blocks per task id
system.cpu.l2cache.tags.age_task_id_blocks_1024::1          135                       # Occupied blocks per task id
system.cpu.l2cache.tags.age_task_id_blocks_1024::2           18                       # Occupied blocks per task id
system.cpu.l2cache.tags.age_task_id_blocks_1024::4          646                       # Occupied blocks per task id
system.cpu.l2cache.tags.occ_task_id_percent::1024     0.212891                       # Percentage of cache occupancy per task id
system.cpu.l2cache.tags.tag_accesses             9416                       # Number of tag accesses
system.cpu.l2cache.tags.data_accesses            9416                       # Number of data accesses
system.cpu.l2cache.pwrStateResidencyTicks::UNDEFINED 515303322000                       # Cumulative time (in ticks) in various power states
system.cpu.l2cache.ReadSharedReq_hits::cpu.inst           20                       # number of ReadSharedReq hits
system.cpu.l2cache.ReadSharedReq_hits::total           20                       # number of ReadSharedReq hits
system.cpu.l2cache.demand_hits::cpu.inst           20                       # number of demand (read+write) hits
system.cpu.l2cache.demand_hits::total              20                       # number of demand (read+write) hits
system.cpu.l2cache.overall_hits::cpu.inst           20                       # number of overall hits
system.cpu.l2cache.overall_hits::total             20                       # number of overall hits
system.cpu.l2cache.ReadExReq_misses::cpu.data          119                       # number of ReadExReq misses
system.cpu.l2cache.ReadExReq_misses::total          119                       # number of ReadExReq misses
system.cpu.l2cache.ReadSharedReq_misses::cpu.inst          545                       # number of ReadSharedReq misses
system.cpu.l2cache.ReadSharedReq_misses::cpu.data          208                       # number of ReadSharedReq misses
system.cpu.l2cache.ReadSharedReq_misses::total          753                       # number of ReadSharedReq misses
system.cpu.l2cache.demand_misses::cpu.inst          545                       # number of demand (read+write) misses
system.cpu.l2cache.demand_misses::cpu.data          327                       # number of demand (read+write) misses
system.cpu.l2cache.demand_misses::total           872                       # number of demand (read+write) misses
system.cpu.l2cache.overall_misses::cpu.inst          545                       # number of overall misses
system.cpu.l2cache.overall_misses::cpu.data          327                       # number of overall misses
system.cpu.l2cache.overall_misses::total          872                       # number of overall misses
system.cpu.l2cache.ReadExReq_miss_latency::cpu.data     14111500                       # number of ReadExReq miss cycles
system.cpu.l2cache.ReadExReq_miss_latency::total     14111500                       # number of ReadExReq miss cycles
system.cpu.l2cache.ReadSharedReq_miss_latency::cpu.inst     66093500                       # number of ReadSharedReq miss cycles
system.cpu.l2cache.ReadSharedReq_miss_latency::cpu.data     41400500                       # number of ReadSharedReq miss cycles
system.cpu.l2cache.ReadSharedReq_miss_latency::total    107494000                       # number of ReadSharedReq miss cycles
system.cpu.l2cache.demand_miss_latency::cpu.inst     66093500                       # number of demand (read+write) miss cycles
system.cpu.l2cache.demand_miss_latency::cpu.data     55512000                       # number of demand (read+write) miss cycles
system.cpu.l2cache.demand_miss_latency::total    121605500                       # number of demand (read+write) miss cycles
system.cpu.l2cache.overall_miss_latency::cpu.inst     66093500                       # number of overall miss cycles
system.cpu.l2cache.overall_miss_latency::cpu.data     55512000                       # number of overall miss cycles
system.cpu.l2cache.overall_miss_latency::total    121605500                       # number of overall miss cycles
system.cpu.l2cache.ReadExReq_accesses::cpu.data          119                       # number of ReadExReq accesses(hits+misses)
system.cpu.l2cache.ReadExReq_accesses::total          119                       # number of ReadExReq accesses(hits+misses)
system.cpu.l2cache.ReadSharedReq_accesses::cpu.inst          565                       # number of ReadSharedReq accesses(hits+misses)
system.cpu.l2cache.ReadSharedReq_accesses::cpu.data          208                       # number of ReadSharedReq accesses(hits+misses)
system.cpu.l2cache.ReadSharedReq_accesses::total          773                       # number of ReadSharedReq accesses(hits+misses)
system.cpu.l2cache.demand_accesses::cpu.inst          565                       # number of demand (read+write) accesses
system.cpu.l2cache.demand_accesses::cpu.data          327                       # number of demand (read+write) accesses
system.cpu.l2cache.demand_accesses::total          892                       # number of demand (read+write) accesses
system.cpu.l2cache.overall_accesses::cpu.inst          565                       # number of overall (read+write) accesses
system.cpu.l2cache.overall_accesses::cpu.data          327                       # number of overall (read+write) accesses
system.cpu.l2cache.overall_accesses::total          892                       # number of overall (read+write) accesses
system.cpu.l2cache.ReadExReq_miss_rate::cpu.data            1                       # miss rate for ReadExReq accesses
system.cpu.l2cache.ReadExReq_miss_rate::total            1                       # miss rate for ReadExReq accesses
system.cpu.l2cache.ReadSharedReq_miss_rate::cpu.inst     0.964602                       # miss rate for ReadSharedReq accesses
system.cpu.l2cache.ReadSharedReq_miss_rate::cpu.data            1                       # miss rate for ReadSharedReq accesses
system.cpu.l2cache.ReadSharedReq_miss_rate::total     0.974127                       # miss rate for ReadSharedReq accesses
system.cpu.l2cache.demand_miss_rate::cpu.inst     0.964602                       # miss rate for demand accesses
system.cpu.l2cache.demand_miss_rate::cpu.data            1                       # miss rate for demand accesses
system.cpu.l2cache.demand_miss_rate::total     0.977578                       # miss rate for demand accesses
system.cpu.l2cache.overall_miss_rate::cpu.inst     0.964602                       # miss rate for overall accesses
system.cpu.l2cache.overall_miss_rate::cpu.data            1                       # miss rate for overall accesses
system.cpu.l2cache.overall_miss_rate::total     0.977578                       # miss rate for overall accesses
system.cpu.l2cache.ReadExReq_avg_miss_latency::cpu.data 118584.033613                       # average ReadExReq miss latency
system.cpu.l2cache.ReadExReq_avg_miss_latency::total 118584.033613                       # average ReadExReq miss latency
system.cpu.l2cache.ReadSharedReq_avg_miss_latency::cpu.inst 121272.477064                       # average ReadSharedReq miss latency
system.cpu.l2cache.ReadSharedReq_avg_miss_latency::cpu.data 199040.865385                       # average ReadSharedReq miss latency
system.cpu.l2cache.ReadSharedReq_avg_miss_latency::total 142754.316069                       # average ReadSharedReq miss latency
system.cpu.l2cache.demand_avg_miss_latency::cpu.inst 121272.477064                       # average overall miss latency
system.cpu.l2cache.demand_avg_miss_latency::cpu.data 169761.467890                       # average overall miss latency
system.cpu.l2cache.demand_avg_miss_latency::total 139455.848624                       # average overall miss latency
system.cpu.l2cache.overall_avg_miss_latency::cpu.inst 121272.477064                       # average overall miss latency
system.cpu.l2cache.overall_avg_miss_latency::cpu.data 169761.467890                       # average overall miss latency
system.cpu.l2cache.overall_avg_miss_latency::total 139455.848624                       # average overall miss latency
system.cpu.l2cache.blocked_cycles::no_mshrs            0                       # number of cycles access was blocked
system.cpu.l2cache.blocked_cycles::no_targets            0                       # number of cycles access was blocked
system.cpu.l2cache.blocked::no_mshrs                0                       # number of cycles access was blocked
system.cpu.l2cache.blocked::no_targets              0                       # number of cycles access was blocked
system.cpu.l2cache.avg_blocked_cycles::no_mshrs          nan                       # average number of cycles each access was blocked
system.cpu.l2cache.avg_blocked_cycles::no_targets          nan                       # average number of cycles each access was blocked
system.cpu.l2cache.ReadExReq_mshr_misses::cpu.data          119                       # number of ReadExReq MSHR misses
system.cpu.l2cache.ReadExReq_mshr_misses::total          119                       # number of ReadExReq MSHR misses
system.cpu.l2cache.ReadSharedReq_mshr_misses::cpu.inst          545                       # number of ReadSharedReq MSHR misses
system.cpu.l2cache.ReadSharedReq_mshr_misses::cpu.data          208                       # number of ReadSharedReq MSHR misses
system.cpu.l2cache.ReadSharedReq_mshr_misses::total          753                       # number of ReadSharedReq MSHR misses
system.cpu.l2cache.demand_mshr_misses::cpu.inst          545                       # number of demand (read+write) MSHR misses
system.cpu.l2cache.demand_mshr_misses::cpu.data          327                       # number of demand (read+write) MSHR misses
system.cpu.l2cache.demand_mshr_misses::total          872                       # number of demand (read+write) MSHR misses
system.cpu.l2cache.overall_mshr_misses::cpu.inst          545                       # number of overall MSHR misses
system.cpu.l2cache.overall_mshr_misses::cpu.data          327                       # number of overall MSHR misses
system.cpu.l2cache.overall_mshr_misses::total          872                       # number of overall MSHR misses
system.cpu.l2cache.ReadExReq_mshr_miss_latency::cpu.data     12921500                       # number of ReadExReq MSHR miss cycles
system.cpu.l2cache.ReadExReq_mshr_miss_latency::total     12921500                       # number of ReadExReq MSHR miss cycles
system.cpu.l2cache.ReadSharedReq_mshr_miss_latency::cpu.inst     60643500                       # number of ReadSharedReq MSHR miss cycles
system.cpu.l2cache.ReadSharedReq_mshr_miss_latency::cpu.data     39320500                       # number of ReadSharedReq MSHR miss cycles
system.cpu.l2cache.ReadSharedReq_mshr_miss_latency::total     99964000                       # number of ReadSharedReq MSHR miss cycles
system.cpu.l2cache.demand_mshr_miss_latency::cpu.inst     60643500                       # number of demand (read+write) MSHR miss cycles
system.cpu.l2cache.demand_mshr_miss_latency::cpu.data     52242000                       # number of demand (read+write) MSHR miss cycles
system.cpu.l2cache.demand_mshr_miss_latency::total    112885500                       # number of demand (read+write) MSHR miss cycles
system.cpu.l2cache.overall_mshr_miss_latency::cpu.inst     60643500                       # number of overall MSHR miss cycles
system.cpu.l2cache.overall_mshr_miss_latency::cpu.data     52242000                       # number of overall MSHR miss cycles
system.cpu.l2cache.overall_mshr_miss_latency::total    112885500                       # number of overall MSHR miss cycles
system.cpu.l2cache.ReadExReq_mshr_miss_rate::cpu.data            1                       # mshr miss rate for ReadExReq accesses
system.cpu.l2cache.ReadExReq_mshr_miss_rate::total            1                       # mshr miss rate for ReadExReq accesses
system.cpu.l2cache.ReadSharedReq_mshr_miss_rate::cpu.inst     0.964602                       # mshr miss rate for ReadSharedReq accesses
system.cpu.l2cache.ReadSharedReq_mshr_miss_rate::cpu.data            1                       # mshr miss rate for ReadSharedReq accesses
system.cpu.l2cache.ReadSharedReq_mshr_miss_rate::total     0.974127                       # mshr miss rate for ReadSharedReq accesses
system.cpu.l2cache.demand_mshr_miss_rate::cpu.inst     0.964602                       # mshr miss rate for demand accesses
system.cpu.l2cache.demand_mshr_miss_rate::cpu.data            1                       # mshr miss rate for demand accesses
system.cpu.l2cache.demand_mshr_miss_rate::total     0.977578                       # mshr miss rate for demand accesses
[...]
system.l3.pwrStateResidencyTicks::UNDEFINED 515303322000                       # Cumulative time (in ticks) in various power states
system.l3.ReadExReq_misses::cpu.data              119                       # number of ReadExReq misses
system.l3.ReadExReq_misses::total                 119                       # number of ReadExReq misses
system.l3.ReadSharedReq_misses::cpu.inst          545                       # number of ReadSharedReq misses
system.l3.ReadSharedReq_misses::cpu.data          208                       # number of ReadSharedReq misses
system.l3.ReadSharedReq_misses::total             753                       # number of ReadSharedReq misses
system.l3.demand_misses::cpu.inst                 545                       # number of demand (read+write) misses
system.l3.demand_misses::cpu.data                 327                       # number of demand (read+write) misses
system.l3.demand_misses::total                    872                       # number of demand (read+write) misses
system.l3.overall_misses::cpu.inst                545                       # number of overall misses
system.l3.overall_misses::cpu.data                327                       # number of overall misses
system.l3.overall_misses::total                   872                       # number of overall misses
system.l3.ReadExReq_miss_latency::cpu.data     11612500                       # number of ReadExReq miss cycles
system.l3.ReadExReq_miss_latency::total      11612500                       # number of ReadExReq miss cycles
system.l3.ReadSharedReq_miss_latency::cpu.inst     54648500                       # number of ReadSharedReq miss cycles
system.l3.ReadSharedReq_miss_latency::cpu.data     37032500                       # number of ReadSharedReq miss cycles
system.l3.ReadSharedReq_miss_latency::total     91681000                       # number of ReadSharedReq miss cycles
system.l3.demand_miss_latency::cpu.inst      54648500                       # number of demand (read+write) miss cycles
system.l3.demand_miss_latency::cpu.data      48645000                       # number of demand (read+write) miss cycles
system.l3.demand_miss_latency::total        103293500                       # number of demand (read+write) miss cycles
system.l3.overall_miss_latency::cpu.inst     54648500                       # number of overall miss cycles
system.l3.overall_miss_latency::cpu.data     48645000                       # number of overall miss cycles
system.l3.overall_miss_latency::total       103293500                       # number of overall miss cycles
system.l3.ReadExReq_accesses::cpu.data            119                       # number of ReadExReq accesses(hits+misses)
system.l3.ReadExReq_accesses::total               119                       # number of ReadExReq accesses(hits+misses)
system.l3.ReadSharedReq_accesses::cpu.inst          545                       # number of ReadSharedReq accesses(hits+misses)
system.l3.ReadSharedReq_accesses::cpu.data          208                       # number of ReadSharedReq accesses(hits+misses)
system.l3.ReadSharedReq_accesses::total           753                       # number of ReadSharedReq accesses(hits+misses)
system.l3.demand_accesses::cpu.inst               545                       # number of demand (read+write) accesses
system.l3.demand_accesses::cpu.data               327                       # number of demand (read+write) accesses
system.l3.demand_accesses::total                  872                       # number of demand (read+write) accesses
system.l3.overall_accesses::cpu.inst              545                       # number of overall (read+write) accesses
system.l3.overall_accesses::cpu.data              327                       # number of overall (read+write) accesses
system.l3.overall_accesses::total                 872                       # number of overall (read+write) accesses
system.l3.ReadExReq_miss_rate::cpu.data             1                       # miss rate for ReadExReq accesses
system.l3.ReadExReq_miss_rate::total                1                       # miss rate for ReadExReq accesses
system.l3.ReadSharedReq_miss_rate::cpu.inst            1                       # miss rate for ReadSharedReq accesses
system.l3.ReadSharedReq_miss_rate::cpu.data            1                       # miss rate for ReadSharedReq accesses
system.l3.ReadSharedReq_miss_rate::total            1                       # miss rate for ReadSharedReq accesses
system.l3.demand_miss_rate::cpu.inst                1                       # miss rate for demand accesses
system.l3.demand_miss_rate::cpu.data                1                       # miss rate for demand accesses
system.l3.demand_miss_rate::total                   1                       # miss rate for demand accesses
system.l3.overall_miss_rate::cpu.inst               1                       # miss rate for overall accesses
system.l3.overall_miss_rate::cpu.data               1                       # miss rate for overall accesses
system.l3.overall_miss_rate::total                  1                       # miss rate for overall accesses
system.l3.ReadExReq_avg_miss_latency::cpu.data 97584.033613                       # average ReadExReq miss latency
system.l3.ReadExReq_avg_miss_latency::total 97584.033613                       # average ReadExReq miss latency
system.l3.ReadSharedReq_avg_miss_latency::cpu.inst 100272.477064                       # average ReadSharedReq miss latency
system.l3.ReadSharedReq_avg_miss_latency::cpu.data 178040.865385                       # average ReadSharedReq miss latency
system.l3.ReadSharedReq_avg_miss_latency::total 121754.316069                       # average ReadSharedReq miss latency
system.l3.demand_avg_miss_latency::cpu.inst 100272.477064                       # average overall miss latency
system.l3.demand_avg_miss_latency::cpu.data 148761.467890                       # average overall miss latency
system.l3.demand_avg_miss_latency::total 118455.848624                       # average overall miss latency
system.l3.overall_avg_miss_latency::cpu.inst 100272.477064                       # average overall miss latency
system.l3.overall_avg_miss_latency::cpu.data 148761.467890                       # average overall miss latency
system.l3.overall_avg_miss_latency::total 118455.848624                       # average overall miss latency
system.l3.blocked_cycles::no_mshrs                  0                       # number of cycles access was blocked
system.l3.blocked_cycles::no_targets                0                       # number of cycles access was blocked
system.l3.blocked::no_mshrs                         0                       # number of cycles access was blocked
system.l3.blocked::no_targets                       0                       # number of cycles access was blocked
system.l3.avg_blocked_cycles::no_mshrs            nan                       # average number of cycles each access was blocked
system.l3.avg_blocked_cycles::no_targets          nan                       # average number of cycles each access was blocked
system.l3.ReadExReq_mshr_misses::cpu.data          119                       # number of ReadExReq MSHR misses
system.l3.ReadExReq_mshr_misses::total            119                       # number of ReadExReq MSHR misses
system.l3.ReadSharedReq_mshr_misses::cpu.inst          545                       # number of ReadSharedReq MSHR misses
system.l3.ReadSharedReq_mshr_misses::cpu.data          208                       # number of ReadSharedReq MSHR misses
system.l3.ReadSharedReq_mshr_misses::total          753                       # number of ReadSharedReq MSHR misses
system.l3.demand_mshr_misses::cpu.inst            545                       # number of demand (read+write) MSHR misses
system.l3.demand_mshr_misses::cpu.data            327                       # number of demand (read+write) MSHR misses
system.l3.demand_mshr_misses::total               872                       # number of demand (read+write) MSHR misses
system.l3.overall_mshr_misses::cpu.inst           545                       # number of overall MSHR misses
system.l3.overall_mshr_misses::cpu.data           327                       # number of overall MSHR misses
system.l3.overall_mshr_misses::total              872                       # number of overall MSHR misses
system.l3.ReadExReq_mshr_miss_latency::cpu.data      9827500                       # number of ReadExReq MSHR miss cycles
system.l3.ReadExReq_mshr_miss_latency::total      9827500                       # number of ReadExReq MSHR miss cycles
system.l3.ReadSharedReq_mshr_miss_latency::cpu.inst     46473500                       # number of ReadSharedReq MSHR miss cycles
system.l3.ReadSharedReq_mshr_miss_latency::cpu.data     33912500                       # number of ReadSharedReq MSHR miss cycles
system.l3.ReadSharedReq_mshr_miss_latency::total     80386000                       # number of ReadSharedReq MSHR miss cycles
system.l3.demand_mshr_miss_latency::cpu.inst     46473500                       # number of demand (read+write) MSHR miss cycles
system.l3.demand_mshr_miss_latency::cpu.data     43740000                       # number of demand (read+write) MSHR miss cycles
system.l3.demand_mshr_miss_latency::total     90213500                       # number of demand (read+write) MSHR miss cycles
system.l3.overall_mshr_miss_latency::cpu.inst     46473500                       # number of overall MSHR miss cycles
system.l3.overall_mshr_miss_latency::cpu.data     43740000                       # number of overall MSHR miss cycles
system.l3.overall_mshr_miss_latency::total     90213500                       # number of overall MSHR miss cycles
system.l3.ReadExReq_mshr_miss_rate::cpu.data            1                       # mshr miss rate for ReadExReq accesses
system.l3.ReadExReq_mshr_miss_rate::total            1                       # mshr miss rate for ReadExReq accesses
system.l3.ReadSharedReq_mshr_miss_rate::cpu.inst            1                       # mshr miss rate for ReadSharedReq accesses
system.l3.ReadSharedReq_mshr_miss_rate::cpu.data            1                       # mshr miss rate for ReadSharedReq accesses
system.l3.ReadSharedReq_mshr_miss_rate::total            1                       # mshr miss rate for ReadSharedReq accesses
system.l3.demand_mshr_miss_rate::cpu.inst            1                       # mshr miss rate for demand accesses
system.l3.demand_mshr_miss_rate::cpu.data            1                       # mshr miss rate for demand accesses
system.l3.demand_mshr_miss_rate::total              1                       # mshr miss rate for demand accesses
system.l3.overall_mshr_miss_rate::cpu.inst            1                       # mshr miss rate for overall accesses
system.l3.overall_mshr_miss_rate::cpu.data            1                       # mshr miss rate for overall accesses
system.l3.overall_mshr_miss_rate::total             1                       # mshr miss rate for overall accesses
system.l3.ReadExReq_avg_mshr_miss_latency::cpu.data 82584.033613                       # average ReadExReq mshr miss latency
system.l3.ReadExReq_avg_mshr_miss_latency::total 82584.033613                       # average ReadExReq mshr miss latency
system.l3.ReadSharedReq_avg_mshr_miss_latency::cpu.inst 85272.477064                       # average ReadSharedReq mshr miss latency
system.l3.ReadSharedReq_avg_mshr_miss_latency::cpu.data 163040.865385                       # average ReadSharedReq mshr miss latency
system.l3.ReadSharedReq_avg_mshr_miss_latency::total 106754.316069                       # average ReadSharedReq mshr miss latency
system.l3.demand_avg_mshr_miss_latency::cpu.inst 85272.477064                       # average overall mshr miss latency
system.l3.demand_avg_mshr_miss_latency::cpu.data 133761.467890                       # average overall mshr miss latency
system.l3.demand_avg_mshr_miss_latency::total 103455.848624                       # average overall mshr miss latency
system.l3.overall_avg_mshr_miss_latency::cpu.inst 85272.477064                       # average overall mshr miss latency
system.l3.overall_avg_mshr_miss_latency::cpu.data 133761.467890                       # average overall mshr miss latency
system.l3.overall_avg_mshr_miss_latency::total 103455.848624                       # average overall mshr miss latency
system.membus.snoop_filter.tot_requests           872                       # Total number of requests made to the snoop filter.
system.membus.snoop_filter.hit_single_requests            0                       # Number of requests hitting in the snoop filter with a single holder of the requested data.
system.membus.snoop_filter.hit_multi_requests            0                       # Number of requests hitting in the snoop filter with multiple (>1) holders of the requested data.
system.membus.snoop_filter.tot_snoops               0                       # Total number of snoops made to the snoop filter.
system.membus.snoop_filter.hit_single_snoops            0                       # Number of snoops hitting in the snoop filter with a single holder of the requested data.
system.membus.snoop_filter.hit_multi_snoops            0                       # Number of snoops hitting in the snoop filter with multiple (>1) holders of the requested data.
system.membus.pwrStateResidencyTicks::UNDEFINED 515303322000                       # Cumulative time (in ticks) in various power states
system.membus.trans_dist::ReadResp                753                       # Transaction distribution
system.membus.trans_dist::ReadExReq               119                       # Transaction distribution
system.membus.trans_dist::ReadExResp              119                       # Transaction distribution
system.membus.trans_dist::ReadSharedReq           753                       # Transaction distribution
system.membus.pkt_count_system.l3.mem_side::system.mem_ctrls.port         1744                       # Packet count per connected master and slave (bytes)
system.membus.pkt_count_system.l3.mem_side::total         1744                       # Packet count per connected master and slave (bytes)
system.membus.pkt_count::total                   1744                       # Packet count per connected master and slave (bytes)
system.membus.pkt_size_system.l3.mem_side::system.mem_ctrls.port        55808                       # Cumulative packet size per connected master and slave (bytes)
system.membus.pkt_size_system.l3.mem_side::total        55808                       # Cumulative packet size per connected master and slave (bytes)
system.membus.pkt_size::total                   55808                       # Cumulative packet size per connected master and slave (bytes)
system.membus.snoops                                0                       # Total snoops (count)
system.membus.snoopTraffic                          0                       # Total snoop traffic (bytes)
system.membus.snoop_fanout::samples               872                       # Request fanout histogram
system.membus.snoop_fanout::mean                    0                       # Request fanout histogram
system.membus.snoop_fanout::stdev                   0                       # Request fanout histogram
system.membus.snoop_fanout::underflows              0      0.00%      0.00% # Request fanout histogram
system.membus.snoop_fanout::0                     872    100.00%    100.00% # Request fanout histogram
system.membus.snoop_fanout::1                       0      0.00%    100.00% # Request fanout histogram
system.membus.snoop_fanout::overflows               0      0.00%    100.00% # Request fanout histogram
system.membus.snoop_fanout::min_value               0                       # Request fanout histogram
system.membus.snoop_fanout::max_value               0                       # Request fanout histogram
system.membus.snoop_fanout::total                 872                       # Request fanout histogram
system.membus.reqLayer2.occupancy              873000                       # Layer occupancy (ticks)
system.membus.reqLayer2.utilization               0.0                       # Layer utilization (%)
system.membus.respLayer1.occupancy            4670000                       # Layer occupancy (ticks)
system.membus.respLayer1.utilization              0.0                       # Layer utilization (%)
system.tol3bus.snoop_filter.tot_requests          872                       # Total number of requests made to the snoop filter.
system.tol3bus.snoop_filter.hit_single_requests            0                       # Number of requests hitting in the snoop filter with a single holder of the requested data.
system.tol3bus.snoop_filter.hit_multi_requests            0                       # Number of requests hitting in the snoop filter with multiple (>1) holders of the requested data.
system.tol3bus.snoop_filter.tot_snoops              0                       # Total number of snoops made to the snoop filter.
system.tol3bus.snoop_filter.hit_single_snoops            0                       # Number of snoops hitting in the snoop filter with a single holder of the requested data.
system.tol3bus.snoop_filter.hit_multi_snoops            0                       # Number of snoops hitting in the snoop filter with multiple (>1) holders of the requested data.
system.tol3bus.pwrStateResidencyTicks::UNDEFINED 515303322000                       # Cumulative time (in ticks) in various power states
system.tol3bus.trans_dist::ReadResp               753                       # Transaction distribution
system.tol3bus.trans_dist::ReadExReq              119                       # Transaction distribution
system.tol3bus.trans_dist::ReadExResp             119                       # Transaction distribution
system.tol3bus.trans_dist::ReadSharedReq          753                       # Transaction distribution
system.tol3bus.pkt_count_system.cpu.l2cache.mem_side::system.l3.cpu_side         1744                       # Packet count per connected master and slave (bytes)
system.tol3bus.pkt_size_system.cpu.l2cache.mem_side::system.l3.cpu_side        55808                       # Cumulative packet size per connected master and slave (bytes)
system.tol3bus.snoops                               0                       # Total snoops (count)
system.tol3bus.snoopTraffic                         0                       # Total snoop traffic (bytes)
system.tol3bus.snoop_fanout::samples              872                       # Request fanout histogram
system.tol3bus.snoop_fanout::mean                   0                       # Request fanout histogram
system.tol3bus.snoop_fanout::stdev                  0                       # Request fanout histogram
system.tol3bus.snoop_fanout::underflows             0      0.00%      0.00% # Request fanout histogram
system.tol3bus.snoop_fanout::0                    872    100.00%    100.00% # Request fanout histogram
system.tol3bus.snoop_fanout::1                      0      0.00%    100.00% # Request fanout histogram
system.tol3bus.snoop_fanout::overflows              0      0.00%    100.00% # Request fanout histogram
system.tol3bus.snoop_fanout::min_value              0                       # Request fanout histogram
system.tol3bus.snoop_fanout::max_value              0                       # Request fanout histogram
system.tol3bus.snoop_fanout::total                872                       # Request fanout histogram
system.tol3bus.reqLayer0.occupancy             436000                       # Layer occupancy (ticks)
system.tol3bus.reqLayer0.utilization              0.0                       # Layer utilization (%)
system.tol3bus.respLayer0.occupancy           1308000                       # Layer occupancy (ticks)
system.tol3bus.respLayer0.utilization             0.0                       # Layer utilization (%)

---------- End Simulation Statistics   ----------
