
---------- Begin Simulation Statistics ----------
sim_seconds                                  2.874943                       # Number of seconds simulated
sim_ticks                                2874943197500                       # Number of ticks simulated
final_tick                               2874943197500                       # Number of ticks from beginning of simulation (restored from checkpoints and never reset)
sim_freq                                 1000000000000                       # Frequency of simulated ticks
host_inst_rate                                1995706                       # Simulator instruction rate (inst/s)
host_op_rate                                  2182043                       # Simulator op (including micro ops) rate (op/s)
host_tick_rate                             2874077185                       # Simulator tick rate (ticks/s)
host_mem_usage                                 691680                       # Number of bytes of host memory used
host_seconds                                  1000.30                       # Real time elapsed on the host
sim_insts                                  1996307170                       # Number of instructions simulated
sim_ops                                    2182700928                       # Number of ops (including micro ops) simulated
system.voltage_domain.voltage                       1                       # Voltage in Volts
system.clk_domain.clock                          1000                       # Clock period in ticks
system.mem_ctrls.pwrStateResidencyTicks::UNDEFINED 2874943197500                       # Cumulative time (in ticks) in various power states
system.mem_ctrls.bytes_read::cpu.inst           27328                       # Number of bytes read from this memory
system.mem_ctrls.bytes_read::cpu.data           21376                       # Number of bytes read from this memory
system.mem_ctrls.bytes_read::total              48704                       # Number of bytes read from this memory
system.mem_ctrls.bytes_inst_read::cpu.inst        27328                       # Number of instructions bytes read from this memory
system.mem_ctrls.bytes_inst_read::total         27328                       # Number of instructions bytes read from this memory
system.mem_ctrls.num_reads::cpu.inst              427                       # Number of read requests responded to by this memory
system.mem_ctrls.num_reads::cpu.data              334                       # Number of read requests responded to by this memory
system.mem_ctrls.num_reads::total                 761                       # Number of read requests responded to by this memory
system.mem_ctrls.bw_read::cpu.inst               9506                       # Total read bandwidth from this memory (bytes/s)
system.mem_ctrls.bw_read::cpu.data               7435                       # Total read bandwidth from this memory (bytes/s)
system.mem_ctrls.bw_read::total                 16941                       # Total read bandwidth from this memory (bytes/s)
system.mem_ctrls.bw_inst_read::cpu.inst          9506                       # Instruction read bandwidth from this memory (bytes/s)
system.mem_ctrls.bw_inst_read::total             9506                       # Instruction read bandwidth from this memory (bytes/s)
system.mem_ctrls.bw_total::cpu.inst              9506                       # Total bandwidth to/from this memory (bytes/s)
system.mem_ctrls.bw_total::cpu.data              7435                       # Total bandwidth to/from this memory (bytes/s)
system.mem_ctrls.bw_total::total                16941                       # Total bandwidth to/from this memory (bytes/s)
system.mem_ctrls.readReqs                         761                       # Number of read requests accepted
system.mem_ctrls.writeReqs                          0                       # Number of write requests accepted
system.mem_ctrls.readBursts                       761                       # Number of DRAM read bursts, including those serviced by the write queue
system.mem_ctrls.writeBursts                        0                       # Number of DRAM write bursts, including those merged in the write queue
system.mem_ctrls.bytesReadDRAM                  48704                       # Total number of bytes read from DRAM
system.mem_ctrls.bytesReadWrQ                       0                       # Total number of bytes read from write queue
system.mem_ctrls.bytesWritten                       0                       # Total number of bytes written to DRAM
system.mem_ctrls.bytesReadSys                   48704                       # Total read bytes from the system interface side
system.mem_ctrls.bytesWrittenSys                    0                       # Total written bytes from the system interface side
system.mem_ctrls.servicedByWrQ                      0                       # Number of DRAM read bursts serviced by the write queue
system.mem_ctrls.mergedWrBursts                     0                       # Number of DRAM write bursts merged with an existing one
system.mem_ctrls.neitherReadNorWriteReqs            0                       # Number of requests that are neither read nor write
system.mem_ctrls.perBankRdBursts::0                61                       # Per bank write bursts
system.mem_ctrls.perBankRdBursts::1                 2                       # Per bank write bursts
system.mem_ctrls.perBankRdBursts::2                32                       # Per bank write bursts
system.mem_ctrls.perBankRdBursts::3                40                       # Per bank write bursts
system.mem_ctrls.perBankRdBursts::4                34                       # Per bank write bursts
system.mem_ctrls.perBankRdBursts::5                95                       # Per bank write bursts
system.mem_ctrls.perBankRdBursts::6                65                       # Per bank write bursts
system.mem_ctrls.perBankRdBursts::7                32                       # Per bank write bursts
system.mem_ctrls.perBankRdBursts::8                36                       # Per bank write bursts
system.mem_ctrls.perBankRdBursts::9                21                       # Per bank write bursts
system.mem_ctrls.perBankRdBursts::10               60                       # Per bank write bursts
system.mem_ctrls.perBankRdBursts::11               74                       # Per bank write bursts
system.mem_ctrls.perBankRdBursts::12               38                       # Per bank write bursts
system.mem_ctrls.perBankRdBursts::13               95                       # Per bank write bursts
system.mem_ctrls.perBankRdBursts::14               73                       # Per bank write bursts
system.mem_ctrls.perBankRdBursts::15                3                       # Per bank write bursts
system.mem_ctrls.perBankWrBursts::0                 0                       # Per bank write bursts
system.mem_ctrls.perBankWrBursts::1                 0                       # Per bank write bursts
system.mem_ctrls.perBankWrBursts::2                 0                       # Per bank write bursts
system.mem_ctrls.perBankWrBursts::3                 0                       # Per bank write bursts
system.mem_ctrls.perBankWrBursts::4                 0                       # Per bank write bursts
system.mem_ctrls.perBankWrBursts::5                 0                       # Per bank write bursts
system.mem_ctrls.perBankWrBursts::6                 0                       # Per bank write bursts
system.mem_ctrls.perBankWrBursts::7                 0                       # Per bank write bursts
system.mem_ctrls.perBankWrBursts::8                 0                       # Per bank write bursts
system.mem_ctrls.perBankWrBursts::9                 0                       # Per bank write bursts
system.mem_ctrls.perBankWrBursts::10                0                       # Per bank write bursts
system.mem_ctrls.perBankWrBursts::11                0                       # Per bank write bursts
system.mem_ctrls.perBankWrBursts::12                0                       # Per bank write bursts
system.mem_ctrls.perBankWrBursts::13                0                       # Per bank write bursts
system.mem_ctrls.perBankWrBursts::14                0                       # Per bank write bursts
system.mem_ctrls.perBankWrBursts::15                0                       # Per bank write bursts
system.mem_ctrls.numRdRetry                         0                       # Number of times read queue was full causing retry
system.mem_ctrls.numWrRetry                         0                       # Number of times write queue was full causing retry
system.mem_ctrls.totGap                  2874943100500                       # Total gap between requests
system.mem_ctrls.readPktSize::0                     0                       # Read request sizes (log2)
system.mem_ctrls.readPktSize::1                     0                       # Read request sizes (log2)
system.mem_ctrls.readPktSize::2                     0                       # Read request sizes (log2)
system.mem_ctrls.readPktSize::3                     0                       # Read request sizes (log2)
system.mem_ctrls.readPktSize::4                     0                       # Read request sizes (log2)
system.mem_ctrls.readPktSize::5                     0                       # Read request sizes (log2)
system.mem_ctrls.readPktSize::6                   761                       # Read request sizes (log2)
system.mem_ctrls.writePktSize::0                    0                       # Write request sizes (log2)
system.mem_ctrls.writePktSize::1                    0                       # Write request sizes (log2)
system.mem_ctrls.writePktSize::2                    0                       # Write request sizes (log2)
system.mem_ctrls.writePktSize::3                    0                       # Write request sizes (log2)
system.mem_ctrls.writePktSize::4                    0                       # Write request sizes (log2)
system.mem_ctrls.writePktSize::5                    0                       # Write request sizes (log2)
system.mem_ctrls.writePktSize::6                    0                       # Write request sizes (log2)
system.mem_ctrls.rdQLenPdf::0                     759                       # What read queue length does an incoming req see
system.mem_ctrls.rdQLenPdf::1                       2                       # What read queue length does an incoming req see
system.mem_ctrls.rdQLenPdf::2                       0                       # What read queue length does an incoming req see
system.mem_ctrls.rdQLenPdf::3                       0                       # What read queue length does an incoming req see
system.mem_ctrls.rdQLenPdf::4                       0                       # What read queue length does an incoming req see
system.mem_ctrls.rdQLenPdf::5                       0                       # What read queue length does an incoming req see
system.mem_ctrls.rdQLenPdf::6                       0                       # What read queue length does an incoming req see
system.mem_ctrls.rdQLenPdf::7                       0                       # What read queue length does an incoming req see
system.mem_ctrls.rdQLenPdf::8                       0                       # What read queue length does an incoming req see
system.mem_ctrls.rdQLenPdf::9                       0                       # What read queue length does an incoming req see
system.mem_ctrls.rdQLenPdf::10                      0                       # What read queue length does an incoming req see
system.mem_ctrls.rdQLenPdf::11                      0                       # What read queue length does an incoming req see
system.mem_ctrls.rdQLenPdf::12                      0                       # What read queue length does an incoming req see
system.mem_ctrls.rdQLenPdf::13                      0                       # What read queue length does an incoming req see
system.mem_ctrls.rdQLenPdf::14                      0                       # What read queue length does an incoming req see
system.mem_ctrls.rdQLenPdf::15                      0                       # What read queue length does an incoming req see
system.mem_ctrls.rdQLenPdf::16                      0                       # What read queue length does an incoming req see
system.mem_ctrls.rdQLenPdf::17                      0                       # What read queue length does an incoming req see
system.mem_ctrls.rdQLenPdf::18                      0                       # What read queue length does an incoming req see
system.mem_ctrls.rdQLenPdf::19                      0                       # What read queue length does an incoming req see
system.mem_ctrls.rdQLenPdf::20                      0                       # What read queue length does an incoming req see
system.mem_ctrls.rdQLenPdf::21                      0                       # What read queue length does an incoming req see
system.mem_ctrls.rdQLenPdf::22                      0                       # What read queue length does an incoming req see
system.mem_ctrls.rdQLenPdf::23                      0                       # What read queue length does an incoming req see
system.mem_ctrls.rdQLenPdf::24                      0                       # What read queue length does an incoming req see
system.mem_ctrls.rdQLenPdf::25                      0                       # What read queue length does an incoming req see
system.mem_ctrls.rdQLenPdf::26                      0                       # What read queue length does an incoming req see
system.mem_ctrls.rdQLenPdf::27                      0                       # What read queue length does an incoming req see
system.mem_ctrls.rdQLenPdf::28                      0                       # What read queue length does an incoming req see
system.mem_ctrls.rdQLenPdf::29                      0                       # What read queue length does an incoming req see
system.mem_ctrls.rdQLenPdf::30                      0                       # What read queue length does an incoming req see
system.mem_ctrls.rdQLenPdf::31                      0                       # What read queue length does an incoming req see
system.mem_ctrls.wrQLenPdf::0                       0                       # What write queue length does an incoming req see
system.mem_ctrls.wrQLenPdf::1                       0                       # What write queue length does an incoming req see
system.mem_ctrls.wrQLenPdf::2                       0                       # What write queue length does an incoming req see
system.mem_ctrls.wrQLenPdf::3                       0                       # What write queue length does an incoming req see
system.mem_ctrls.wrQLenPdf::4                       0                       # What write queue length does an incoming req see
system.mem_ctrls.wrQLenPdf::5                       0                       # What write queue length does an incoming req see
system.mem_ctrls.wrQLenPdf::6                       0                       # What write queue length does an incoming req see
system.mem_ctrls.wrQLenPdf::7                       0                       # What write queue length does an incoming req see
system.mem_ctrls.wrQLenPdf::8                       0                       # What write queue length does an incoming req see
system.mem_ctrls.wrQLenPdf::9                       0                       # What write queue length does an incoming req see
system.mem_ctrls.wrQLenPdf::10                      0                       # What write queue length does an incoming req see
system.mem_ctrls.wrQLenPdf::11                      0                       # What write queue length does an incoming req see
system.mem_ctrls.wrQLenPdf::12                      0                       # What write queue length does an incoming req see
system.mem_ctrls.wrQLenPdf::13                      0                       # What write queue length does an incoming req see
system.mem_ctrls.wrQLenPdf::14                      0                       # What write queue length does an incoming req see
system.mem_ctrls.wrQLenPdf::15                      0                       # What write queue length does an incoming req see
system.mem_ctrls.wrQLenPdf::16                      0                       # What write queue length does an incoming req see
system.mem_ctrls.wrQLenPdf::17                      0                       # What write queue length does an incoming req see
system.mem_ctrls.wrQLenPdf::18                      0                       # What write queue length does an incoming req see
system.mem_ctrls.wrQLenPdf::19                      0                       # What write queue length does an incoming req see
system.mem_ctrls.wrQLenPdf::20                      0                       # What write queue length does an incoming req see
system.mem_ctrls.wrQLenPdf::21                      0                       # What write queue length does an incoming req see
system.mem_ctrls.wrQLenPdf::22                      0                       # What write queue length does an incoming req see
system.mem_ctrls.wrQLenPdf::23                      0                       # What write queue length does an incoming req see
system.mem_ctrls.wrQLenPdf::24                      0                       # What write queue length does an incoming req see
system.mem_ctrls.wrQLenPdf::25                      0                       # What write queue length does an incoming req see
system.mem_ctrls.wrQLenPdf::26                      0                       # What write queue length does an incoming req see
system.mem_ctrls.wrQLenPdf::27                      0                       # What write queue length does an incoming req see
system.mem_ctrls.wrQLenPdf::28                      0                       # What write queue length does an incoming req see
system.mem_ctrls.wrQLenPdf::29                      0                       # What write queue length does an incoming req see
system.mem_ctrls.wrQLenPdf::30                      0                       # What write queue length does an incoming req see
system.mem_ctrls.wrQLenPdf::31                      0                       # What write queue length does an incoming req see
system.mem_ctrls.wrQLenPdf::32                      0                       # What write queue length does an incoming req see
system.mem_ctrls.wrQLenPdf::33                      0                       # What write queue length does an incoming req see
system.mem_ctrls.wrQLenPdf::34                      0                       # What write queue length does an incoming req see
system.mem_ctrls.wrQLenPdf::35                      0                       # What write queue length does an incoming req see
system.mem_ctrls.wrQLenPdf::36                      0                       # What write queue length does an incoming req see
system.mem_ctrls.wrQLenPdf::37                      0                       # What write queue length does an incoming req see
system.mem_ctrls.wrQLenPdf::38                      0                       # What write queue length does an incoming req see
system.mem_ctrls.wrQLenPdf::39                      0                       # What write queue length does an incoming req see
system.mem_ctrls.wrQLenPdf::40                      0                       # What write queue length does an incoming req see
system.mem_ctrls.wrQLenPdf::41                      0                       # What write queue length does an incoming req see
system.mem_ctrls.wrQLenPdf::42                      0                       # What write queue length does an incoming req see
system.mem_ctrls.wrQLenPdf::43                      0                       # What write queue length does an incoming req see
system.mem_ctrls.wrQLenPdf::44                      0                       # What write queue length does an incoming req see
system.mem_ctrls.wrQLenPdf::45                      0                       # What write queue length does an incoming req see
system.mem_ctrls.wrQLenPdf::46                      0                       # What write queue length does an incoming req see
system.mem_ctrls.wrQLenPdf::47                      0                       # What write queue length does an incoming req see
system.mem_ctrls.wrQLenPdf::48                      0                       # What write queue length does an incoming req see
system.mem_ctrls.wrQLenPdf::49                      0                       # What write queue length does an incoming req see
system.mem_ctrls.wrQLenPdf::50                      0                       # What write queue length does an incoming req see
system.mem_ctrls.wrQLenPdf::51                      0                       # What write queue length does an incoming req see
system.mem_ctrls.wrQLenPdf::52                      0                       # What write queue length does an incoming req see
system.mem_ctrls.wrQLenPdf::53                      0                       # What write queue length does an incoming req see
system.mem_ctrls.wrQLenPdf::54                      0                       # What write queue length does an incoming req see
system.mem_ctrls.wrQLenPdf::55                      0                       # What write queue length does an incoming req see
system.mem_ctrls.wrQLenPdf::56                      0                       # What write queue length does an incoming req see
system.mem_ctrls.wrQLenPdf::57                      0                       # What write queue length does an incoming req see
system.mem_ctrls.wrQLenPdf::58                      0                       # What write queue length does an incoming req see
system.mem_ctrls.wrQLenPdf::59                      0                       # What write queue length does an incoming req see
system.mem_ctrls.wrQLenPdf::60                      0                       # What write queue length does an incoming req see
system.mem_ctrls.wrQLenPdf::61                      0                       # What write queue length does an incoming req see
system.mem_ctrls.wrQLenPdf::62                      0                       # What write queue length does an incoming req see
system.mem_ctrls.wrQLenPdf::63                      0                       # What write queue length does an incoming req see
system.mem_ctrls.bytesPerActivate::samples          246                       # Bytes accessed per row activation
system.mem_ctrls.bytesPerActivate::mean    194.601626                       # Bytes accessed per row activation
system.mem_ctrls.bytesPerActivate::gmean   121.222953                       # Bytes accessed per row activation
system.mem_ctrls.bytesPerActivate::stdev   246.809511                       # Bytes accessed per row activation
system.mem_ctrls.bytesPerActivate::0-127          136     55.28%     55.28% # Bytes accessed per row activation
system.mem_ctrls.bytesPerActivate::128-255           56     22.76%     78.05% # Bytes accessed per row activation
system.mem_ctrls.bytesPerActivate::256-383           22      8.94%     86.99% # Bytes accessed per row activation
system.mem_ctrls.bytesPerActivate::384-511            7      2.85%     89.84% # Bytes accessed per row activation
system.mem_ctrls.bytesPerActivate::512-639            3      1.22%     91.06% # Bytes accessed per row activation
system.mem_ctrls.bytesPerActivate::640-767            3      1.22%     92.28% # Bytes accessed per row activation
system.mem_ctrls.bytesPerActivate::768-895            6      2.44%     94.72% # Bytes accessed per row activation
system.mem_ctrls.bytesPerActivate::896-1023            1      0.41%     95.12% # Bytes accessed per row activation
system.mem_ctrls.bytesPerActivate::1024-1151           12      4.88%    100.00% # Bytes accessed per row activation
system.mem_ctrls.bytesPerActivate::total          246                       # Bytes accessed per row activation
system.mem_ctrls.totQLat                     12203000                       # Total ticks spent queuing
system.mem_ctrls.totMemAccLat                26471750                       # Total ticks spent from burst creation until serviced by the DRAM
system.mem_ctrls.totBusLat                    3805000                       # Total ticks spent in databus transfers
system.mem_ctrls.avgQLat                     16035.48                       # Average queueing delay per DRAM burst
system.mem_ctrls.avgBusLat                    5000.00                       # Average bus latency per DRAM burst
system.mem_ctrls.avgMemAccLat                34785.48                       # Average memory access latency per DRAM burst
system.mem_ctrls.avgRdBW                         0.02                       # Average DRAM read bandwidth in MiByte/s
system.mem_ctrls.avgWrBW                         0.00                       # Average achieved write bandwidth in MiByte/s
system.mem_ctrls.avgRdBWSys                      0.02                       # Average system read bandwidth in MiByte/s
system.mem_ctrls.avgWrBWSys                      0.00                       # Average system write bandwidth in MiByte/s
system.mem_ctrls.peakBW                      12800.00                       # Theoretical peak bandwidth in MiByte/s
system.mem_ctrls.busUtil                         0.00                       # Data bus utilization in percentage
system.mem_ctrls.busUtilRead                     0.00                       # Data bus utilization in percentage for reads
system.mem_ctrls.busUtilWrite                    0.00                       # Data bus utilization in percentage for writes
system.mem_ctrls.avgRdQLen                       1.00                       # Average read queue length when enqueuing
system.mem_ctrls.avgWrQLen                       0.00                       # Average write queue length when enqueuing
system.mem_ctrls.readRowHits                      510                       # Number of row buffer hits during reads
system.mem_ctrls.writeRowHits                       0                       # Number of row buffer hits during writes
system.mem_ctrls.readRowHitRate                 67.02                       # Row buffer hit rate for reads
system.mem_ctrls.writeRowHitRate                  nan                       # Row buffer hit rate for writes
system.mem_ctrls.avgGap                  3777849015.11                       # Average gap between requests
system.mem_ctrls.pageHitRate                    67.02                       # Row buffer hit rate, read and write combined
system.mem_ctrls_0.actEnergy                   449820                       # Energy for activate commands per rank (pJ)
system.mem_ctrls_0.preEnergy                   223905                       # Energy for precharge commands per rank (pJ)
system.mem_ctrls_0.readEnergy                 2577540                       # Energy for read commands per rank (pJ)
system.mem_ctrls_0.writeEnergy                      0                       # Energy for write commands per rank (pJ)
system.mem_ctrls_0.refreshEnergy         6761040.000000                       # Energy for refresh commands per rank (pJ)
system.mem_ctrls_0.actBackEnergy              6016920                       # Energy for active background per rank (pJ)
system.mem_ctrls_0.preBackEnergy               246240                       # Energy for precharge background per rank (pJ)
system.mem_ctrls_0.actPowerDownEnergy        26820210                       # Energy for active power-down per rank (pJ)
system.mem_ctrls_0.prePowerDownEnergy         3670080                       # Energy for precharge power-down per rank (pJ)
system.mem_ctrls_0.selfRefreshEnergy     689967189240                       # Energy for self refresh per rank (pJ)
system.mem_ctrls_0.totalEnergy           690013954995                       # Total energy per rank (pJ)
system.mem_ctrls_0.averagePower            240.009596                       # Core power per rank (mW)
system.mem_ctrls_0.totalIdleTime         2874929185500                       # Total Idle time Per DRAM Rank
system.mem_ctrls_0.memoryStateTime::IDLE       329500                       # Time in different power states
system.mem_ctrls_0.memoryStateTime::REF       2866000                       # Time in different power states
system.mem_ctrls_0.memoryStateTime::SREF 2874860986750                       # Time in different power states
system.mem_ctrls_0.memoryStateTime::PRE_PDN      9557250                       # Time in different power states
system.mem_ctrls_0.memoryStateTime::ACT      10624750                       # Time in different power states
system.mem_ctrls_0.memoryStateTime::ACT_PDN     58833250                       # Time in different power states
system.mem_ctrls_1.actEnergy                  1342320                       # Energy for activate commands per rank (pJ)
system.mem_ctrls_1.preEnergy                   709665                       # Energy for precharge commands per rank (pJ)
system.mem_ctrls_1.readEnergy                 2856000                       # Energy for read commands per rank (pJ)
system.mem_ctrls_1.writeEnergy                      0                       # Energy for write commands per rank (pJ)
system.mem_ctrls_1.refreshEnergy         76830000.000000                       # Energy for refresh commands per rank (pJ)
system.mem_ctrls_1.actBackEnergy             20022390                       # Energy for active background per rank (pJ)
system.mem_ctrls_1.preBackEnergy              1759680                       # Energy for precharge background per rank (pJ)
system.mem_ctrls_1.actPowerDownEnergy       255256260                       # Energy for active power-down per rank (pJ)
system.mem_ctrls_1.prePowerDownEnergy       137722080                       # Energy for precharge power-down per rank (pJ)
system.mem_ctrls_1.selfRefreshEnergy     689754860040                       # Energy for self refresh per rank (pJ)
system.mem_ctrls_1.totalEnergy           690251358435                       # Total energy per rank (pJ)
system.mem_ctrls_1.averagePower            240.092173                       # Core power per rank (mW)
system.mem_ctrls_1.totalIdleTime         2874894702000                       # Total Idle time Per DRAM Rank
system.mem_ctrls_1.memoryStateTime::IDLE      1104000                       # Time in different power states
system.mem_ctrls_1.memoryStateTime::REF      32506000                       # Time in different power states
system.mem_ctrls_1.memoryStateTime::SREF 2873976282750                       # Time in different power states
system.mem_ctrls_1.memoryStateTime::PRE_PDN    358626250                       # Time in different power states
system.mem_ctrls_1.memoryStateTime::ACT      14838500                       # Time in different power states
system.mem_ctrls_1.memoryStateTime::ACT_PDN    559840000                       # Time in different power states
system.pwrStateResidencyTicks::UNDEFINED 2874943197500                       # Cumulative time (in ticks) in various power states
system.cpu_voltage_domain.voltage                   1                       # Voltage in Volts
system.cpu_clk_domain.clock                       500                       # Clock period in ticks
system.cpu.dstage2_mmu.stage2_tlb.walker.pwrStateResidencyTicks::UNDEFINED 2874943197500                       # Cumulative time (in ticks) in various power states
system.cpu.dstage2_mmu.stage2_tlb.walker.walks            0                       # Table walker walks requested
system.cpu.dstage2_mmu.stage2_tlb.walker.walkRequestOrigin_Requested::Data            0                       # Table walker requests started/completed, data/inst
system.cpu.dstage2_mmu.stage2_tlb.walker.walkRequestOrigin_Requested::Inst            0                       # Table walker requests started/completed, data/inst
system.cpu.dstage2_mmu.stage2_tlb.walker.walkRequestOrigin_Requested::total            0                       # Table walker requests started/completed, data/inst
system.cpu.dstage2_mmu.stage2_tlb.walker.walkRequestOrigin_Completed::Data            0                       # Table walker requests started/completed, data/inst
system.cpu.dstage2_mmu.stage2_tlb.walker.walkRequestOrigin_Completed::Inst            0                       # Table walker requests started/completed, data/inst
system.cpu.dstage2_mmu.stage2_tlb.walker.walkRequestOrigin_Completed::total            0                       # Table walker requests started/completed, data/inst
system.cpu.dstage2_mmu.stage2_tlb.walker.walkRequestOrigin::total            0                       # Table walker requests started/completed, data/inst
system.cpu.dstage2_mmu.stage2_tlb.inst_hits            0                       # ITB inst hits
system.cpu.dstage2_mmu.stage2_tlb.inst_misses            0                       # ITB inst misses
system.cpu.dstage2_mmu.stage2_tlb.read_hits            0                       # DTB read hits
system.cpu.dstage2_mmu.stage2_tlb.read_misses            0                       # DTB read misses
system.cpu.dstage2_mmu.stage2_tlb.write_hits            0                       # DTB write hits
system.cpu.dstage2_mmu.stage2_tlb.write_misses            0                       # DTB write misses
system.cpu.dstage2_mmu.stage2_tlb.flush_tlb            0                       # Number of times complete TLB was flushed
system.cpu.dstage2_mmu.stage2_tlb.flush_tlb_mva            0                       # Number of times TLB was flushed by MVA
system.cpu.dstage2_mmu.stage2_tlb.flush_tlb_mva_asid            0                       # Number of times TLB was flushed by MVA & ASID
system.cpu.dstage2_mmu.stage2_tlb.flush_tlb_asid            0                       # Number of times TLB was flushed by ASID
system.cpu.dstage2_mmu.stage2_tlb.flush_entries            0                       # Number of entries that have been flushed from TLB
system.cpu.dstage2_mmu.stage2_tlb.align_faults            0                       # Number of TLB faults due to alignment restrictions
system.cpu.dstage2_mmu.stage2_tlb.prefetch_faults            0                       # Number of TLB faults due to prefetch
system.cpu.dstage2_mmu.stage2_tlb.domain_faults            0                       # Number of TLB faults due to domain restrictions
system.cpu.dstage2_mmu.stage2_tlb.perms_faults            0                       # Number of TLB faults due to permissions restrictions
system.cpu.dstage2_mmu.stage2_tlb.read_accesses            0                       # DTB read accesses
system.cpu.dstage2_mmu.stage2_tlb.write_accesses            0                       # DTB write accesses
system.cpu.dstage2_mmu.stage2_tlb.inst_accesses            0                       # ITB inst accesses
system.cpu.dstage2_mmu.stage2_tlb.hits              0                       # DTB hits
system.cpu.dstage2_mmu.stage2_tlb.misses            0                       # DTB misses
system.cpu.dstage2_mmu.stage2_tlb.accesses            0                       # DTB accesses
system.cpu.dtb.walker.pwrStateResidencyTicks::UNDEFINED 2874943197500                       # Cumulative time (in ticks) in various power states
system.cpu.dtb.walker.walks                         0                       # Table walker walks requested
system.cpu.dtb.walker.walkRequestOrigin_Requested::Data            0                       # Table walker requests started/completed, data/inst
system.cpu.dtb.walker.walkRequestOrigin_Requested::Inst            0                       # Table walker requests started/completed, data/inst
system.cpu.dtb.walker.walkRequestOrigin_Requested::total            0                       # Table walker requests started/completed, data/inst
system.cpu.dtb.walker.walkRequestOrigin_Completed::Data            0                       # Table walker requests started/completed, data/inst
system.cpu.dtb.walker.walkRequestOrigin_Completed::Inst            0                       # Table walker requests started/completed, data/inst
system.cpu.dtb.walker.walkRequestOrigin_Completed::total            0                       # Table walker requests started/completed, data/inst
system.cpu.dtb.walker.walkRequestOrigin::total            0                       # Table walker requests started/completed, data/inst
system.cpu.dtb.inst_hits                            0                       # ITB inst hits
system.cpu.dtb.inst_misses                          0                       # ITB inst misses
system.cpu.dtb.read_hits                            0                       # DTB read hits
system.cpu.dtb.read_misses                          0                       # DTB read misses
system.cpu.dtb.write_hits                           0                       # DTB write hits
system.cpu.dtb.write_misses                         0                       # DTB write misses
system.cpu.dtb.flush_tlb                            0                       # Number of times complete TLB was flushed
system.cpu.dtb.flush_tlb_mva                        0                       # Number of times TLB was flushed by MVA
system.cpu.dtb.flush_tlb_mva_asid                   0                       # Number of times TLB was flushed by MVA & ASID
system.cpu.dtb.flush_tlb_asid                       0                       # Number of times TLB was flushed by ASID
system.cpu.dtb.flush_entries                        0                       # Number of entries that have been flushed from TLB
system.cpu.dtb.align_faults                         0                       # Number of TLB faults due to alignment restrictions
system.cpu.dtb.prefetch_faults                      0                       # Number of TLB faults due to prefetch
system.cpu.dtb.domain_faults                        0                       # Number of TLB faults due to domain restrictions
system.cpu.dtb.perms_faults                         0                       # Number of TLB faults due to permissions restrictions
system.cpu.dtb.read_accesses                        0                       # DTB read accesses
system.cpu.dtb.write_accesses                       0                       # DTB write accesses
system.cpu.dtb.inst_accesses                        0                       # ITB inst accesses
system.cpu.dtb.hits                                 0                       # DTB hits
system.cpu.dtb.misses                               0                       # DTB misses
system.cpu.dtb.accesses                             0                       # DTB accesses
system.cpu.istage2_mmu.stage2_tlb.walker.pwrStateResidencyTicks::UNDEFINED 2874943197500                       # Cumulative time (in ticks) in various power states
system.cpu.istage2_mmu.stage2_tlb.walker.walks            0                       # Table walker walks requested
system.cpu.istage2_mmu.stage2_tlb.walker.walkRequestOrigin_Requested::Data            0                       # Table walker requests started/completed, data/inst
system.cpu.istage2_mmu.stage2_tlb.walker.walkRequestOrigin_Requested::Inst            0                       # Table walker requests started/completed, data/inst
system.cpu.istage2_mmu.stage2_tlb.walker.walkRequestOrigin_Requested::total            0                       # Table walker requests started/completed, data/inst
system.cpu.istage2_mmu.stage2_tlb.walker.walkRequestOrigin_Completed::Data            0                       # Table walker requests started/completed, data/inst
system.cpu.istage2_mmu.stage2_tlb.walker.walkRequestOrigin_Completed::Inst            0                       # Table walker requests started/completed, data/inst
system.cpu.istage2_mmu.stage2_tlb.walker.walkRequestOrigin_Completed::total            0                       # Table walker requests started/completed, data/inst
system.cpu.istage2_mmu.stage2_tlb.walker.walkRequestOrigin::total            0                       # Table walker requests started/completed, data/inst
system.cpu.istage2_mmu.stage2_tlb.inst_hits            0                       # ITB inst hits
system.cpu.istage2_mmu.stage2_tlb.inst_misses            0                       # ITB inst misses
system.cpu.istage2_mmu.stage2_tlb.read_hits            0                       # DTB read hits
system.cpu.istage2_mmu.stage2_tlb.read_misses            0                       # DTB read misses
system.cpu.istage2_mmu.stage2_tlb.write_hits            0                       # DTB write hits
system.cpu.istage2_mmu.stage2_tlb.write_misses            0                       # DTB write misses
system.cpu.istage2_mmu.stage2_tlb.flush_tlb            0                       # Number of times complete TLB was flushed
system.cpu.istage2_mmu.stage2_tlb.flush_tlb_mva            0                       # Number of times TLB was flushed by MVA
system.cpu.istage2_mmu.stage2_tlb.flush_tlb_mva_asid            0                       # Number of times TLB was flushed by MVA & ASID
system.cpu.istage2_mmu.stage2_tlb.flush_tlb_asid            0                       # Number of times TLB was flushed by ASID
system.cpu.istage2_mmu.stage2_tlb.flush_entries            0                       # Number of entries that have been flushed from TLB
system.cpu.istage2_mmu.stage2_tlb.align_faults            0                       # Number of TLB faults due to alignment restrictions
system.cpu.istage2_mmu.stage2_tlb.prefetch_faults            0                       # Number of TLB faults due to prefetch
system.cpu.istage2_mmu.stage2_tlb.domain_faults            0                       # Number of TLB faults due to domain restrictions
system.cpu.istage2_mmu.stage2_tlb.perms_faults            0                       # Number of TLB faults due to permissions restrictions
system.cpu.istage2_mmu.stage2_tlb.read_accesses            0                       # DTB read accesses
system.cpu.istage2_mmu.stage2_tlb.write_accesses            0                       # DTB write accesses
system.cpu.istage2_mmu.stage2_tlb.inst_accesses            0                       # ITB inst accesses
system.cpu.istage2_mmu.stage2_tlb.hits              0                       # DTB hits
system.cpu.istage2_mmu.stage2_tlb.misses            0                       # DTB misses
system.cpu.istage2_mmu.stage2_tlb.accesses            0                       # DTB accesses
system.cpu.itb.walker.pwrStateResidencyTicks::UNDEFINED 2874943197500                       # Cumulative time (in ticks) in various power states
system.cpu.itb.walker.walks                         0                       # Table walker walks requested
system.cpu.itb.walker.walkRequestOrigin_Requested::Data            0                       # Table walker requests started/completed, data/inst
system.cpu.itb.walker.walkRequestOrigin_Requested::Inst            0                       # Table walker requests started/completed, data/inst
system.cpu.itb.walker.walkRequestOrigin_Requested::total            0                       # Table walker requests started/completed, data/inst
system.cpu.itb.walker.walkRequestOrigin_Completed::Data            0                       # Table walker requests started/completed, data/inst
system.cpu.itb.walker.walkRequestOrigin_Completed::Inst            0                       # Table walker requests started/completed, data/inst
system.cpu.itb.walker.walkRequestOrigin_Completed::total            0                       # Table walker requests started/completed, data/inst
system.cpu.itb.walker.walkRequestOrigin::total            0                       # Table walker requests started/completed, data/inst
system.cpu.itb.inst_hits                            0                       # ITB inst hits
system.cpu.itb.inst_misses                          0                       # ITB inst misses
system.cpu.itb.read_hits                            0                       # DTB read hits
system.cpu.itb.read_misses                          0                       # DTB read misses
system.cpu.itb.write_hits                           0                       # DTB write hits
system.cpu.itb.write_misses                         0                       # DTB write misses
system.cpu.itb.flush_tlb                            0                       # Number of times complete TLB was flushed
system.cpu.itb.flush_tlb_mva                        0                       # Number of times TLB was flushed by MVA
system.cpu.itb.flush_tlb_mva_asid                   0                       # Number of times TLB was flushed by MVA & ASID
system.cpu.itb.flush_tlb_asid                       0                       # Number of times TLB was flushed by ASID
system.cpu.itb.flush_entries                        0                       # Number of entries that have been flushed from TLB
system.cpu.itb.align_faults                         0                       # Number of TLB faults due to alignment restrictions
system.cpu.itb.prefetch_faults                      0                       # Number of TLB faults due to prefetch
system.cpu.itb.domain_faults                        0                       # Number of TLB faults due to domain restrictions
system.cpu.itb.perms_faults                         0                       # Number of TLB faults due to permissions restrictions
system.cpu.itb.read_accesses                        0                       # DTB read accesses
system.cpu.itb.write_accesses                       0                       # DTB write accesses
system.cpu.itb.inst_accesses                        0                       # ITB inst accesses
system.cpu.itb.hits                                 0                       # DTB hits
system.cpu.itb.misses                               0                       # DTB misses
system.cpu.itb.accesses                             0                       # DTB accesses
system.cpu.workload.num_syscalls                 3264                       # Number of system calls
system.cpu.pwrStateResidencyTicks::ON    2874943197500                       # Cumulative time (in ticks) in various power states
system.cpu.numCycles                       5749886395                       # number of cpu cycles simulated
system.cpu.numWorkItemsStarted                      0                       # number of work items this cpu started
system.cpu.numWorkItemsCompleted                    0                       # number of work items this cpu completed
system.cpu.committedInsts                  1996307170                       # Number of instructions committed
system.cpu.committedOps                    2182700928                       # Number of ops (including micro ops) committed
system.cpu.num_int_alu_accesses            1836682316                       # Number of integer alu accesses
system.cpu.num_fp_alu_accesses                     16                       # Number of float alu accesses
system.cpu.num_func_calls                   106471176                       # number of times a function call or return occured
system.cpu.num_conditional_control_insts    292792955                       # number of instructions that are conditional controls
system.cpu.num_int_insts                   1836682316                       # number of integer instructions
system.cpu.num_fp_insts                            16                       # number of float instructions
system.cpu.num_int_register_reads          3540198585                       # number of times the integer registers were read
system.cpu.num_int_register_writes         1277674755                       # number of times the integer registers were written
system.cpu.num_fp_register_reads                   16                       # number of times the floating registers were read
system.cpu.num_fp_register_writes                   0                       # number of times the floating registers were written
system.cpu.num_cc_register_reads           8304965385                       # number of times the CC registers were read
system.cpu.num_cc_register_writes           745333091                       # number of times the CC registers were written
system.cpu.num_mem_refs                     878446519                       # number of memory refs
system.cpu.num_load_insts                   532391879                       # Number of load instructions
system.cpu.num_store_insts                  346054640                       # Number of store instructions
system.cpu.num_idle_cycles                   0.002000                       # Number of idle cycles
system.cpu.num_busy_cycles               5749886394.998000                       # Number of busy cycles
system.cpu.not_idle_fraction                 1.000000                       # Percentage of non-idle cycles
system.cpu.idle_fraction                     0.000000                       # Percentage of idle cycles
system.cpu.Branches                         425885203                       # Number of branches fetched
system.cpu.op_class::No_OpClass                     0      0.00%      0.00% # Class of executed instruction
system.cpu.op_class::IntAlu                1304261015     59.75%     59.75% # Class of executed instruction
system.cpu.op_class::IntMult                       15      0.00%     59.75% # Class of executed instruction
system.cpu.op_class::IntDiv                         0      0.00%     59.75% # Class of executed instruction
system.cpu.op_class::FloatAdd                       0      0.00%     59.75% # Class of executed instruction
system.cpu.op_class::FloatCmp                       0      0.00%     59.75% # Class of executed instruction
system.cpu.op_class::FloatCvt                       0      0.00%     59.75% # Class of executed instruction
system.cpu.op_class::FloatMult                      0      0.00%     59.75% # Class of executed instruction
system.cpu.op_class::FloatMultAcc                   0      0.00%     59.75% # Class of executed instruction
system.cpu.op_class::FloatDiv                       0      0.00%     59.75% # Class of executed instruction
system.cpu.op_class::FloatMisc                      0      0.00%     59.75% # Class of executed instruction
system.cpu.op_class::FloatSqrt                      0      0.00%     59.75% # Class of executed instruction
system.cpu.op_class::SimdAdd                        0      0.00%     59.75% # Class of executed instruction
system.cpu.op_class::SimdAddAcc                     0      0.00%     59.75% # Class of executed instruction
system.cpu.op_class::SimdAlu                        0      0.00%     59.75% # Class of executed instruction
system.cpu.op_class::SimdCmp                        0      0.00%     59.75% # Class of executed instruction
system.cpu.op_class::SimdCvt                        0      0.00%     59.75% # Class of executed instruction
system.cpu.op_class::SimdMisc                       0      0.00%     59.75% # Class of executed instruction
system.cpu.op_class::SimdMult                       0      0.00%     59.75% # Class of executed instruction
system.cpu.op_class::SimdMultAcc                    0      0.00%     59.75% # Class of executed instruction
system.cpu.op_class::SimdShift                      0      0.00%     59.75% # Class of executed instruction
system.cpu.op_class::SimdShiftAcc                   0      0.00%     59.75% # Class of executed instruction
system.cpu.op_class::SimdSqrt                       0      0.00%     59.75% # Class of executed instruction
system.cpu.op_class::SimdFloatAdd                   0      0.00%     59.75% # Class of executed instruction
system.cpu.op_class::SimdFloatAlu                   0      0.00%     59.75% # Class of executed instruction
system.cpu.op_class::SimdFloatCmp                   0      0.00%     59.75% # Class of executed instruction
system.cpu.op_class::SimdFloatCvt                   0      0.00%     59.75% # Class of executed instruction
system.cpu.op_class::SimdFloatDiv                   0      0.00%     59.75% # Class of executed instruction
system.cpu.op_class::SimdFloatMisc                  0      0.00%     59.75% # Class of executed instruction
system.cpu.op_class::SimdFloatMult                  0      0.00%     59.75% # Class of executed instruction
system.cpu.op_class::SimdFloatMultAcc               0      0.00%     59.75% # Class of executed instruction
system.cpu.op_class::SimdFloatSqrt                  0      0.00%     59.75% # Class of executed instruction
system.cpu.op_class::MemRead                532391879     24.39%     84.15% # Class of executed instruction
system.cpu.op_class::MemWrite               346054624     15.85%    100.00% # Class of executed instruction
system.cpu.op_class::FloatMemRead                   0      0.00%    100.00% # Class of executed instruction
system.cpu.op_class::FloatMemWrite                 16      0.00%    100.00% # Class of executed instruction
system.cpu.op_class::IprAccess                      0      0.00%    100.00% # Class of executed instruction
system.cpu.op_class::InstPrefetch                   0      0.00%    100.00% # Class of executed instruction
system.cpu.op_class::total                 2182707549                       # Class of executed instruction
system.cpu.dcache.tags.pwrStateResidencyTicks::UNDEFINED 2874943197500                       # Cumulative time (in ticks) in various power states
system.cpu.dcache.tags.replacements                17                       # number of replacements
system.cpu.dcache.tags.tagsinuse           283.978703                       # Cycle average of tags in use
system.cpu.dcache.tags.total_refs           878446067                       # Total number of references to valid blocks.
system.cpu.dcache.tags.sampled_refs               354                       # Sample count of references to valid blocks.
system.cpu.dcache.tags.avg_refs          2481486.064972                       # Average number of references to valid blocks.
system.cpu.dcache.tags.warmup_cycle                 0                       # Cycle when the warmup percentage was hit.
system.cpu.dcache.tags.occ_blocks::cpu.data   283.978703                       # Average occupied blocks per requestor
system.cpu.dcache.tags.occ_percent::cpu.data     0.554646                       # Average percentage of cache occupancy
system.cpu.dcache.tags.occ_percent::total     0.554646                       # Average percentage of cache occupancy
system.cpu.dcache.tags.occ_task_id_blocks::1024          337                       # Occupied blocks per task id
system.cpu.dcache.tags.age_task_id_blocks_1024::0           20                       # Occupied blocks per task id
system.cpu.dcache.tags.age_task_id_blocks_1024::1           40                       # Occupied blocks per task id
system.cpu.dcache.tags.age_task_id_blocks_1024::4          277                       # Occupied blocks per task id
system.cpu.dcache.tags.occ_task_id_percent::1024     0.658203                       # Percentage of cache occupancy per task id
system.cpu.dcache.tags.tag_accesses        1756893198                       # Number of tag accesses
system.cpu.dcache.tags.data_accesses       1756893198                       # Number of data accesses
system.cpu.dcache.pwrStateResidencyTicks::UNDEFINED 2874943197500                       # Cumulative time (in ticks) in various power states
system.cpu.dcache.ReadReq_hits::cpu.data    479172325                       # number of ReadReq hits
system.cpu.dcache.ReadReq_hits::total       479172325                       # number of ReadReq hits
system.cpu.dcache.WriteReq_hits::cpu.data    292828855                       # number of WriteReq hits
system.cpu.dcache.WriteReq_hits::total      292828855                       # number of WriteReq hits
system.cpu.dcache.SoftPFReq_hits::cpu.data           12                       # number of SoftPFReq hits
system.cpu.dcache.SoftPFReq_hits::total            12                       # number of SoftPFReq hits
system.cpu.dcache.LoadLockedReq_hits::cpu.data     53222437                       # number of LoadLockedReq hits
system.cpu.dcache.LoadLockedReq_hits::total     53222437                       # number of LoadLockedReq hits
system.cpu.dcache.StoreCondReq_hits::cpu.data     53222438                       # number of StoreCondReq hits
system.cpu.dcache.StoreCondReq_hits::total     53222438                       # number of StoreCondReq hits
system.cpu.dcache.demand_hits::cpu.data     772001180                       # number of demand (read+write) hits
system.cpu.dcache.demand_hits::total        772001180                       # number of demand (read+write) hits
system.cpu.dcache.overall_hits::cpu.data    772001192                       # number of overall hits
system.cpu.dcache.overall_hits::total       772001192                       # number of overall hits
system.cpu.dcache.ReadReq_misses::cpu.data          288                       # number of ReadReq misses
system.cpu.dcache.ReadReq_misses::total           288                       # number of ReadReq misses
system.cpu.dcache.WriteReq_misses::cpu.data           61                       # number of WriteReq misses
system.cpu.dcache.WriteReq_misses::total           61                       # number of WriteReq misses
system.cpu.dcache.SoftPFReq_misses::cpu.data            5                       # number of SoftPFReq misses
system.cpu.dcache.SoftPFReq_misses::total            5                       # number of SoftPFReq misses
system.cpu.dcache.LoadLockedReq_misses::cpu.data            1                       # number of LoadLockedReq misses
system.cpu.dcache.LoadLockedReq_misses::total            1                       # number of LoadLockedReq misses
system.cpu.dcache.demand_misses::cpu.data          349                       # number of demand (read+write) misses
system.cpu.dcache.demand_misses::total            349                       # number of demand (read+write) misses
system.cpu.dcache.overall_misses::cpu.data          354                       # number of overall misses
system.cpu.dcache.overall_misses::total           354                       # number of overall misses
system.cpu.dcache.ReadReq_miss_latency::cpu.data     24206500                       # number of ReadReq miss cycles
system.cpu.dcache.ReadReq_miss_latency::total     24206500                       # number of ReadReq miss cycles
system.cpu.dcache.WriteReq_miss_latency::cpu.data      5051500                       # number of WriteReq miss cycles
system.cpu.dcache.WriteReq_miss_latency::total      5051500                       # number of WriteReq miss cycles
system.cpu.dcache.LoadLockedReq_miss_latency::cpu.data        78000                       # number of LoadLockedReq miss cycles
system.cpu.dcache.LoadLockedReq_miss_latency::total        78000                       # number of LoadLockedReq miss cycles
system.cpu.dcache.demand_miss_latency::cpu.data     29258000                       # number of demand (read+write) miss cycles
system.cpu.dcache.demand_miss_latency::total     29258000                       # number of demand (read+write) miss cycles
system.cpu.dcache.overall_miss_latency::cpu.data     29258000                       # number of overall miss cycles
system.cpu.dcache.overall_miss_latency::total     29258000                       # number of overall miss cycles
system.cpu.dcache.ReadReq_accesses::cpu.data    479172613                       # number of ReadReq accesses(hits+misses)
system.cpu.dcache.ReadReq_accesses::total    479172613                       # number of ReadReq accesses(hits+misses)
system.cpu.dcache.WriteReq_accesses::cpu.data    292828916                       # number of WriteReq accesses(hits+misses)
system.cpu.dcache.WriteReq_accesses::total    292828916                       # number of WriteReq accesses(hits+misses)
system.cpu.dcache.SoftPFReq_accesses::cpu.data           17                       # number of SoftPFReq accesses(hits+misses)
system.cpu.dcache.SoftPFReq_accesses::total           17                       # number of SoftPFReq accesses(hits+misses)
system.cpu.dcache.LoadLockedReq_accesses::cpu.data     53222438                       # number of LoadLockedReq accesses(hits+misses)
system.cpu.dcache.LoadLockedReq_accesses::total     53222438                       # number of LoadLockedReq accesses(hits+misses)
system.cpu.dcache.StoreCondReq_accesses::cpu.data     53222438                       # number of StoreCondReq accesses(hits+misses)
system.cpu.dcache.StoreCondReq_accesses::total     53222438                       # number of StoreCondReq accesses(hits+misses)
system.cpu.dcache.demand_accesses::cpu.data    772001529                       # number of demand (read+write) accesses
system.cpu.dcache.demand_accesses::total    772001529                       # number of demand (read+write) accesses
system.cpu.dcache.overall_accesses::cpu.data    772001546                       # number of overall (read+write) accesses
system.cpu.dcache.overall_accesses::total    772001546                       # number of overall (read+write) accesses
system.cpu.dcache.ReadReq_miss_rate::cpu.data     0.000001                       # miss rate for ReadReq accesses
system.cpu.dcache.ReadReq_miss_rate::total     0.000001                       # miss rate for ReadReq accesses
system.cpu.dcache.WriteReq_miss_rate::cpu.data     0.000000                       # miss rate for WriteReq accesses
system.cpu.dcache.WriteReq_miss_rate::total     0.000000                       # miss rate for WriteReq accesses
system.cpu.dcache.SoftPFReq_miss_rate::cpu.data     0.294118                       # miss rate for SoftPFReq accesses
system.cpu.dcache.SoftPFReq_miss_rate::total     0.294118                       # miss rate for SoftPFReq accesses
system.cpu.dcache.LoadLockedReq_miss_rate::cpu.data     0.000000                       # miss rate for LoadLockedReq accesses
system.cpu.dcache.LoadLockedReq_miss_rate::total     0.000000                       # miss rate for LoadLockedReq accesses
system.cpu.dcache.demand_miss_rate::cpu.data     0.000000                       # miss rate for demand accesses
system.cpu.dcache.demand_miss_rate::total     0.000000                       # miss rate for demand accesses
system.cpu.dcache.overall_miss_rate::cpu.data     0.000000                       # miss rate for overall accesses
system.cpu.dcache.overall_miss_rate::total     0.000000                       # miss rate for overall accesses
system.cpu.dcache.ReadReq_avg_miss_latency::cpu.data 84050.347222                       # average ReadReq miss latency
system.cpu.dcache.ReadReq_avg_miss_latency::total 84050.347222                       # average ReadReq miss latency
system.cpu.dcache.WriteReq_avg_miss_latency::cpu.data 82811.475410                       # average WriteReq miss latency
system.cpu.dcache.WriteReq_avg_miss_latency::total 82811.475410                       # average WriteReq miss latency
system.cpu.dcache.LoadLockedReq_avg_miss_latency::cpu.data        78000                       # average LoadLockedReq miss latency
system.cpu.dcache.LoadLockedReq_avg_miss_latency::total        78000                       # average LoadLockedReq miss latency
system.cpu.dcache.demand_avg_miss_latency::cpu.data 83833.810888                       # average overall miss latency
system.cpu.dcache.demand_avg_miss_latency::total 83833.810888                       # average overall miss latency
system.cpu.dcache.overall_avg_miss_latency::cpu.data 82649.717514                       # average overall miss latency
system.cpu.dcache.overall_avg_miss_latency::total 82649.717514                       # average overall miss latency
system.cpu.dcache.blocked_cycles::no_mshrs            0                       # number of cycles access was blocked
system.cpu.dcache.blocked_cycles::no_targets            0                       # number of cycles access was blocked
system.cpu.dcache.blocked::no_mshrs                 0                       # number of cycles access was blocked
system.cpu.dcache.blocked::no_targets               0                       # number of cycles access was blocked
system.cpu.dcache.avg_blocked_cycles::no_mshrs          nan                       # average number of cycles each access was blocked
system.cpu.dcache.avg_blocked_cycles::no_targets          nan                       # average number of cycles each access was blocked
system.cpu.dcache.writebacks::writebacks            2                       # number of writebacks
system.cpu.dcache.writebacks::total                 2                       # number of writebacks
system.cpu.dcache.ReadReq_mshr_hits::cpu.data            1                       # number of ReadReq MSHR hits
system.cpu.dcache.ReadReq_mshr_hits::total            1                       # number of ReadReq MSHR hits
system.cpu.dcache.demand_mshr_hits::cpu.data            1                       # number of demand (read+write) MSHR hits
system.cpu.dcache.demand_mshr_hits::total            1                       # number of demand (read+write) MSHR hits
system.cpu.dcache.overall_mshr_hits::cpu.data            1                       # number of overall MSHR hits
system.cpu.dcache.overall_mshr_hits::total            1                       # number of overall MSHR hits
system.cpu.dcache.ReadReq_mshr_misses::cpu.data          287                       # number of ReadReq MSHR misses
system.cpu.dcache.ReadReq_mshr_misses::total          287                       # number of ReadReq MSHR misses
system.cpu.dcache.WriteReq_mshr_misses::cpu.data           61                       # number of WriteReq MSHR misses
system.cpu.dcache.WriteReq_mshr_misses::total           61                       # number of WriteReq MSHR misses
system.cpu.dcache.SoftPFReq_mshr_misses::cpu.data            5                       # number of SoftPFReq MSHR misses
system.cpu.dcache.SoftPFReq_mshr_misses::total            5                       # number of SoftPFReq MSHR misses
system.cpu.dcache.LoadLockedReq_mshr_misses::cpu.data            1                       # number of LoadLockedReq MSHR misses
system.cpu.dcache.LoadLockedReq_mshr_misses::total            1                       # number of LoadLockedReq MSHR misses
system.cpu.dcache.demand_mshr_misses::cpu.data          348                       # number of demand (read+write) MSHR misses
system.cpu.dcache.demand_mshr_misses::total          348                       # number of demand (read+write) MSHR misses
system.cpu.dcache.overall_mshr_misses::cpu.data          353                       # number of overall MSHR misses
system.cpu.dcache.overall_mshr_misses::total          353                       # number of overall MSHR misses
system.cpu.dcache.ReadReq_mshr_miss_latency::cpu.data     23866500                       # number of ReadReq MSHR miss cycles
system.cpu.dcache.ReadReq_mshr_miss_latency::total     23866500                       # number of ReadReq MSHR miss cycles
system.cpu.dcache.WriteReq_mshr_miss_latency::cpu.data      4990500                       # number of WriteReq MSHR miss cycles
system.cpu.dcache.WriteReq_mshr_miss_latency::total      4990500                       # number of WriteReq MSHR miss cycles
system.cpu.dcache.SoftPFReq_mshr_miss_latency::cpu.data       442000                       # number of SoftPFReq MSHR miss cycles
system.cpu.dcache.SoftPFReq_mshr_miss_latency::total       442000                       # number of SoftPFReq MSHR miss cycles
system.cpu.dcache.LoadLockedReq_mshr_miss_latency::cpu.data        77000                       # number of LoadLockedReq MSHR miss cycles
system.cpu.dcache.LoadLockedReq_mshr_miss_latency::total        77000                       # number of LoadLockedReq MSHR miss cycles
system.cpu.dcache.demand_mshr_miss_latency::cpu.data     28857000                       # number of demand (read+write) MSHR miss cycles
system.cpu.dcache.demand_mshr_miss_latency::total     28857000                       # number of demand (read+write) MSHR miss cycles
system.cpu.dcache.overall_mshr_miss_latency::cpu.data     29299000                       # number of overall MSHR miss cycles
system.cpu.dcache.overall_mshr_miss_latency::total     29299000                       # number of overall MSHR miss cycles
system.cpu.dcache.ReadReq_mshr_miss_rate::cpu.data     0.000001                       # mshr miss rate for ReadReq accesses
system.cpu.dcache.ReadReq_mshr_miss_rate::total     0.000001                       # mshr miss rate for ReadReq accesses
system.cpu.dcache.WriteReq_mshr_miss_rate::cpu.data     0.000000                       # mshr miss rate for WriteReq accesses
system.cpu.dcache.WriteReq_mshr_miss_rate::total     0.000000                       # mshr miss rate for WriteReq accesses
system.cpu.dcache.SoftPFReq_mshr_miss_rate::cpu.data     0.294118                       # mshr miss rate for SoftPFReq accesses
system.cpu.dcache.SoftPFReq_mshr_miss_rate::total     0.294118                       # mshr miss rate for SoftPFReq accesses
system.cpu.dcache.LoadLockedReq_mshr_miss_rate::cpu.data     0.000000                       # mshr miss rate for LoadLockedReq accesses
system.cpu.dcache.LoadLockedReq_mshr_miss_rate::total     0.000000                       # mshr miss rate for LoadLockedReq accesses
system.cpu.dcache.demand_mshr_miss_rate::cpu.data     0.000000                       # mshr miss rate for demand accesses
system.cpu.dcache.demand_mshr_miss_rate::total     0.000000                       # mshr miss rate for demand accesses
system.cpu.dcache.overall_mshr_miss_rate::cpu.data     0.000000                       # mshr miss rate for overall accesses
system.cpu.dcache.overall_mshr_miss_rate::total     0.000000                       # mshr miss rate for overall accesses
system.cpu.dcache.ReadReq_avg_mshr_miss_latency::cpu.data 83158.536585                       # average ReadReq mshr miss latency
system.cpu.dcache.ReadReq_avg_mshr_miss_latency::total 83158.536585                       # average ReadReq mshr miss latency
system.cpu.dcache.WriteReq_avg_mshr_miss_latency::cpu.data 81811.475410                       # average WriteReq mshr miss latency
system.cpu.dcache.WriteReq_avg_mshr_miss_latency::total 81811.475410                       # average WriteReq mshr miss latency
system.cpu.dcache.SoftPFReq_avg_mshr_miss_latency::cpu.data        88400                       # average SoftPFReq mshr miss latency
system.cpu.dcache.SoftPFReq_avg_mshr_miss_latency::total        88400                       # average SoftPFReq mshr miss latency
system.cpu.dcache.LoadLockedReq_avg_mshr_miss_latency::cpu.data        77000                       # average LoadLockedReq mshr miss latency
system.cpu.dcache.LoadLockedReq_avg_mshr_miss_latency::total        77000                       # average LoadLockedReq mshr miss latency
system.cpu.dcache.demand_avg_mshr_miss_latency::cpu.data 82922.413793                       # average overall mshr miss latency
system.cpu.dcache.demand_avg_mshr_miss_latency::total 82922.413793                       # average overall mshr miss latency
system.cpu.dcache.overall_avg_mshr_miss_latency::cpu.data        83000                       # average overall mshr miss latency
system.cpu.dcache.overall_avg_mshr_miss_latency::total        83000                       # average overall mshr miss latency
system.cpu.icache.tags.pwrStateResidencyTicks::UNDEFINED 2874943197500                       # Cumulative time (in ticks) in various power states
system.cpu.icache.tags.replacements             10164                       # number of replacements
system.cpu.icache.tags.tagsinuse           122.999488                       # Cycle average of tags in use
system.cpu.icache.tags.total_refs          1996303465                       # Total number of references to valid blocks.
system.cpu.icache.tags.sampled_refs             10292                       # Sample count of references to valid blocks.
system.cpu.icache.tags.avg_refs          193966.523999                       # Average number of references to valid blocks.
system.cpu.icache.tags.warmup_cycle      2874934522500                       # Cycle when the warmup percentage was hit.
system.cpu.icache.tags.occ_blocks::cpu.inst   122.999488                       # Average occupied blocks per requestor
system.cpu.icache.tags.occ_percent::cpu.inst     0.960934                       # Average percentage of cache occupancy
system.cpu.icache.tags.occ_percent::total     0.960934                       # Average percentage of cache occupancy
system.cpu.icache.tags.occ_task_id_blocks::1024          128                       # Occupied blocks per task id
system.cpu.icache.tags.age_task_id_blocks_1024::0           81                       # Occupied blocks per task id
system.cpu.icache.tags.age_task_id_blocks_1024::1           45                       # Occupied blocks per task id
system.cpu.icache.tags.age_task_id_blocks_1024::4            2                       # Occupied blocks per task id
system.cpu.icache.tags.occ_task_id_percent::1024            1                       # Percentage of cache occupancy per task id
system.cpu.icache.tags.tag_accesses        3992637806                       # Number of tag accesses
system.cpu.icache.tags.data_accesses       3992637806                       # Number of data accesses
system.cpu.icache.pwrStateResidencyTicks::UNDEFINED 2874943197500                       # Cumulative time (in ticks) in various power states
system.cpu.icache.ReadReq_hits::cpu.inst   1996303465                       # number of ReadReq hits
system.cpu.icache.ReadReq_hits::total      1996303465                       # number of ReadReq hits
system.cpu.icache.demand_hits::cpu.inst    1996303465                       # number of demand (read+write) hits
system.cpu.icache.demand_hits::total       1996303465                       # number of demand (read+write) hits
system.cpu.icache.overall_hits::cpu.inst   1996303465                       # number of overall hits
system.cpu.icache.overall_hits::total      1996303465                       # number of overall hits
system.cpu.icache.ReadReq_misses::cpu.inst        10292                       # number of ReadReq misses
system.cpu.icache.ReadReq_misses::total         10292                       # number of ReadReq misses
system.cpu.icache.demand_misses::cpu.inst        10292                       # number of demand (read+write) misses
system.cpu.icache.demand_misses::total          10292                       # number of demand (read+write) misses
system.cpu.icache.overall_misses::cpu.inst        10292                       # number of overall misses
system.cpu.icache.overall_misses::total         10292                       # number of overall misses
system.cpu.icache.ReadReq_miss_latency::cpu.inst    165956000                       # number of ReadReq miss cycles
system.cpu.icache.ReadReq_miss_latency::total    165956000                       # number of ReadReq miss cycles
system.cpu.icache.demand_miss_latency::cpu.inst    165956000                       # number of demand (read+write) miss cycles
system.cpu.icache.demand_miss_latency::total    165956000                       # number of demand (read+write) miss cycles
system.cpu.icache.overall_miss_latency::cpu.inst    165956000                       # number of overall miss cycles
system.cpu.icache.overall_miss_latency::total    165956000                       # number of overall miss cycles
system.cpu.icache.ReadReq_accesses::cpu.inst   1996313757                       # number of ReadReq accesses(hits+misses)
system.cpu.icache.ReadReq_accesses::total   1996313757                       # number of ReadReq accesses(hits+misses)
system.cpu.icache.demand_accesses::cpu.inst   1996313757                       # number of demand (read+write) accesses
system.cpu.icache.demand_accesses::total   1996313757                       # number of demand (read+write) accesses
system.cpu.icache.overall_accesses::cpu.inst   1996313757                       # number of overall (read+write) accesses
system.cpu.icache.overall_accesses::total   1996313757                       # number of overall (read+write) accesses
system.cpu.icache.ReadReq_miss_rate::cpu.inst     0.000005                       # miss rate for ReadReq accesses
system.cpu.icache.ReadReq_miss_rate::total     0.000005                       # miss rate for ReadReq accesses
system.cpu.icache.demand_miss_rate::cpu.inst     0.000005                       # miss rate for demand accesses
system.cpu.icache.demand_miss_rate::total     0.000005                       # miss rate for demand accesses
system.cpu.icache.overall_miss_rate::cpu.inst     0.000005                       # miss rate for overall accesses
system.cpu.icache.overall_miss_rate::total     0.000005                       # miss rate for overall accesses
system.cpu.icache.ReadReq_avg_miss_latency::cpu.inst 16124.757093                       # average ReadReq miss latency
system.cpu.icache.ReadReq_avg_miss_latency::total 16124.757093                       # average ReadReq miss latency
system.cpu.icache.demand_avg_miss_latency::cpu.inst 16124.757093                       # average overall miss latency
system.cpu.icache.demand_avg_miss_latency::total 16124.757093                       # average overall miss latency
system.cpu.icache.overall_avg_miss_latency::cpu.inst 16124.757093                       # average overall miss latency
system.cpu.icache.overall_avg_miss_latency::total 16124.757093                       # average overall miss latency
system.cpu.icache.blocked_cycles::no_mshrs            0                       # number of cycles access was blocked
system.cpu.icache.blocked_cycles::no_targets            0                       # number of cycles access was blocked
system.cpu.icache.blocked::no_mshrs                 0                       # number of cycles access was blocked
system.cpu.icache.blocked::no_targets               0                       # number of cycles access was blocked
system.cpu.icache.avg_blocked_cycles::no_mshrs          nan                       # average number of cycles each access was blocked
system.cpu.icache.avg_blocked_cycles::no_targets          nan                       # average number of cycles each access was blocked
system.cpu.icache.writebacks::writebacks        10164                       # number of writebacks
system.cpu.icache.writebacks::total             10164                       # number of writebacks
system.cpu.icache.ReadReq_mshr_misses::cpu.inst        10292                       # number of ReadReq MSHR misses
system.cpu.icache.ReadReq_mshr_misses::total        10292                       # number of ReadReq MSHR misses
system.cpu.icache.demand_mshr_misses::cpu.inst        10292                       # number of demand (read+write) MSHR misses
system.cpu.icache.demand_mshr_misses::total        10292                       # number of demand (read+write) MSHR misses
system.cpu.icache.overall_mshr_misses::cpu.inst        10292                       # number of overall MSHR misses
system.cpu.icache.overall_mshr_misses::total        10292                       # number of overall MSHR misses
system.cpu.icache.ReadReq_mshr_miss_latency::cpu.inst    155664000                       # number of ReadReq MSHR miss cycles
system.cpu.icache.ReadReq_mshr_miss_latency::total    155664000                       # number of ReadReq MSHR miss cycles
system.cpu.icache.demand_mshr_miss_latency::cpu.inst    155664000                       # number of demand (read+write) MSHR miss cycles
system.cpu.icache.demand_mshr_miss_latency::total    155664000                       # number of demand (read+write) MSHR miss cycles
system.cpu.icache.overall_mshr_miss_latency::cpu.inst    155664000                       # number of overall MSHR miss cycles
system.cpu.icache.overall_mshr_miss_latency::total    155664000                       # number of overall MSHR miss cycles
system.cpu.icache.ReadReq_mshr_miss_rate::cpu.inst     0.000005                       # mshr miss rate for ReadReq accesses
system.cpu.icache.ReadReq_mshr_miss_rate::total     0.000005                       # mshr miss rate for ReadReq accesses
[...]
system.l2.overall_miss_latency::cpu.data     28604500                       # number of overall miss cycles
system.l2.overall_miss_latency::total        65196000                       # number of overall miss cycles
system.l2.WritebackDirty_accesses::writebacks            2                       # number of WritebackDirty accesses(hits+misses)
system.l2.WritebackDirty_accesses::total            2                       # number of WritebackDirty accesses(hits+misses)
system.l2.WritebackClean_accesses::writebacks        10130                       # number of WritebackClean accesses(hits+misses)
system.l2.WritebackClean_accesses::total        10130                       # number of WritebackClean accesses(hits+misses)
system.l2.ReadExReq_accesses::cpu.data             61                       # number of ReadExReq accesses(hits+misses)
system.l2.ReadExReq_accesses::total                61                       # number of ReadExReq accesses(hits+misses)
system.l2.ReadCleanReq_accesses::cpu.inst        10292                       # number of ReadCleanReq accesses(hits+misses)
system.l2.ReadCleanReq_accesses::total          10292                       # number of ReadCleanReq accesses(hits+misses)
system.l2.ReadSharedReq_accesses::cpu.data          293                       # number of ReadSharedReq accesses(hits+misses)
system.l2.ReadSharedReq_accesses::total           293                       # number of ReadSharedReq accesses(hits+misses)
system.l2.demand_accesses::cpu.inst             10292                       # number of demand (read+write) accesses
system.l2.demand_accesses::cpu.data               354                       # number of demand (read+write) accesses
system.l2.demand_accesses::total                10646                       # number of demand (read+write) accesses
system.l2.overall_accesses::cpu.inst            10292                       # number of overall (read+write) accesses
system.l2.overall_accesses::cpu.data              354                       # number of overall (read+write) accesses
system.l2.overall_accesses::total               10646                       # number of overall (read+write) accesses
system.l2.ReadExReq_miss_rate::cpu.data             1                       # miss rate for ReadExReq accesses
system.l2.ReadExReq_miss_rate::total                1                       # miss rate for ReadExReq accesses
system.l2.ReadCleanReq_miss_rate::cpu.inst     0.041489                       # miss rate for ReadCleanReq accesses
system.l2.ReadCleanReq_miss_rate::total      0.041489                       # miss rate for ReadCleanReq accesses
system.l2.ReadSharedReq_miss_rate::cpu.data     0.931741                       # miss rate for ReadSharedReq accesses
system.l2.ReadSharedReq_miss_rate::total     0.931741                       # miss rate for ReadSharedReq accesses
system.l2.demand_miss_rate::cpu.inst         0.041489                       # miss rate for demand accesses
system.l2.demand_miss_rate::cpu.data         0.943503                       # miss rate for demand accesses
system.l2.demand_miss_rate::total            0.071482                       # miss rate for demand accesses
system.l2.overall_miss_rate::cpu.inst        0.041489                       # miss rate for overall accesses
system.l2.overall_miss_rate::cpu.data        0.943503                       # miss rate for overall accesses
system.l2.overall_miss_rate::total           0.071482                       # miss rate for overall accesses
system.l2.ReadExReq_avg_miss_latency::cpu.data 80278.688525                       # average ReadExReq miss latency
system.l2.ReadExReq_avg_miss_latency::total 80278.688525                       # average ReadExReq miss latency
system.l2.ReadCleanReq_avg_miss_latency::cpu.inst 85694.379391                       # average ReadCleanReq miss latency
system.l2.ReadCleanReq_avg_miss_latency::total 85694.379391                       # average ReadCleanReq miss latency
system.l2.ReadSharedReq_avg_miss_latency::cpu.data 86840.659341                       # average ReadSharedReq miss latency
system.l2.ReadSharedReq_avg_miss_latency::total 86840.659341                       # average ReadSharedReq miss latency
system.l2.demand_avg_miss_latency::cpu.inst 85694.379391                       # average overall miss latency
system.l2.demand_avg_miss_latency::cpu.data 85642.215569                       # average overall miss latency
system.l2.demand_avg_miss_latency::total 85671.484888                       # average overall miss latency
system.l2.overall_avg_miss_latency::cpu.inst 85694.379391                       # average overall miss latency
system.l2.overall_avg_miss_latency::cpu.data 85642.215569                       # average overall miss latency
system.l2.overall_avg_miss_latency::total 85671.484888                       # average overall miss latency
system.l2.blocked_cycles::no_mshrs                  0                       # number of cycles access was blocked
system.l2.blocked_cycles::no_targets                0                       # number of cycles access was blocked
system.l2.blocked::no_mshrs                         0                       # number of cycles access was blocked
system.l2.blocked::no_targets                       0                       # number of cycles access was blocked
system.l2.avg_blocked_cycles::no_mshrs            nan                       # average number of cycles each access was blocked
system.l2.avg_blocked_cycles::no_targets          nan                       # average number of cycles each access was blocked
system.l2.ReadExReq_mshr_misses::cpu.data           61                       # number of ReadExReq MSHR misses
system.l2.ReadExReq_mshr_misses::total             61                       # number of ReadExReq MSHR misses
system.l2.ReadCleanReq_mshr_misses::cpu.inst          427                       # number of ReadCleanReq MSHR misses
system.l2.ReadCleanReq_mshr_misses::total          427                       # number of ReadCleanReq MSHR misses
system.l2.ReadSharedReq_mshr_misses::cpu.data          273                       # number of ReadSharedReq MSHR misses
system.l2.ReadSharedReq_mshr_misses::total          273                       # number of ReadSharedReq MSHR misses
system.l2.demand_mshr_misses::cpu.inst            427                       # number of demand (read+write) MSHR misses
system.l2.demand_mshr_misses::cpu.data            334                       # number of demand (read+write) MSHR misses
system.l2.demand_mshr_misses::total               761                       # number of demand (read+write) MSHR misses
system.l2.overall_mshr_misses::cpu.inst           427                       # number of overall MSHR misses
system.l2.overall_mshr_misses::cpu.data           334                       # number of overall MSHR misses
system.l2.overall_mshr_misses::total              761                       # number of overall MSHR misses
system.l2.ReadExReq_mshr_miss_latency::cpu.data      4287000                       # number of ReadExReq MSHR miss cycles
system.l2.ReadExReq_mshr_miss_latency::total      4287000                       # number of ReadExReq MSHR miss cycles
system.l2.ReadCleanReq_mshr_miss_latency::cpu.inst     32321500                       # number of ReadCleanReq MSHR miss cycles
system.l2.ReadCleanReq_mshr_miss_latency::total     32321500                       # number of ReadCleanReq MSHR miss cycles
system.l2.ReadSharedReq_mshr_miss_latency::cpu.data     20977500                       # number of ReadSharedReq MSHR miss cycles
system.l2.ReadSharedReq_mshr_miss_latency::total     20977500                       # number of ReadSharedReq MSHR miss cycles
system.l2.demand_mshr_miss_latency::cpu.inst     32321500                       # number of demand (read+write) MSHR miss cycles
system.l2.demand_mshr_miss_latency::cpu.data     25264500                       # number of demand (read+write) MSHR miss cycles
system.l2.demand_mshr_miss_latency::total     57586000                       # number of demand (read+write) MSHR miss cycles
system.l2.overall_mshr_miss_latency::cpu.inst     32321500                       # number of overall MSHR miss cycles
system.l2.overall_mshr_miss_latency::cpu.data     25264500                       # number of overall MSHR miss cycles
system.l2.overall_mshr_miss_latency::total     57586000                       # number of overall MSHR miss cycles
system.l2.ReadExReq_mshr_miss_rate::cpu.data            1                       # mshr miss rate for ReadExReq accesses
system.l2.ReadExReq_mshr_miss_rate::total            1                       # mshr miss rate for ReadExReq accesses
system.l2.ReadCleanReq_mshr_miss_rate::cpu.inst     0.041489                       # mshr miss rate for ReadCleanReq accesses
system.l2.ReadCleanReq_mshr_miss_rate::total     0.041489                       # mshr miss rate for ReadCleanReq accesses
system.l2.ReadSharedReq_mshr_miss_rate::cpu.data     0.931741                       # mshr miss rate for ReadSharedReq accesses
system.l2.ReadSharedReq_mshr_miss_rate::total     0.931741                       # mshr miss rate for ReadSharedReq accesses
system.l2.demand_mshr_miss_rate::cpu.inst     0.041489                       # mshr miss rate for demand accesses
system.l2.demand_mshr_miss_rate::cpu.data     0.943503                       # mshr miss rate for demand accesses
system.l2.demand_mshr_miss_rate::total       0.071482                       # mshr miss rate for demand accesses
system.l2.overall_mshr_miss_rate::cpu.inst     0.041489                       # mshr miss rate for overall accesses
system.l2.overall_mshr_miss_rate::cpu.data     0.943503                       # mshr miss rate for overall accesses
system.l2.overall_mshr_miss_rate::total      0.071482                       # mshr miss rate for overall accesses
system.l2.ReadExReq_avg_mshr_miss_latency::cpu.data 70278.688525                       # average ReadExReq mshr miss latency
system.l2.ReadExReq_avg_mshr_miss_latency::total 70278.688525                       # average ReadExReq mshr miss latency
system.l2.ReadCleanReq_avg_mshr_miss_latency::cpu.inst 75694.379391                       # average ReadCleanReq mshr miss latency
system.l2.ReadCleanReq_avg_mshr_miss_latency::total 75694.379391                       # average ReadCleanReq mshr miss latency
system.l2.ReadSharedReq_avg_mshr_miss_latency::cpu.data 76840.659341                       # average ReadSharedReq mshr miss latency
system.l2.ReadSharedReq_avg_mshr_miss_latency::total 76840.659341                       # average ReadSharedReq mshr miss latency
system.l2.demand_avg_mshr_miss_latency::cpu.inst 75694.379391                       # average overall mshr miss latency
system.l2.demand_avg_mshr_miss_latency::cpu.data 75642.215569                       # average overall mshr miss latency
system.l2.demand_avg_mshr_miss_latency::total 75671.484888                       # average overall mshr miss latency
system.l2.overall_avg_mshr_miss_latency::cpu.inst 75694.379391                       # average overall mshr miss latency
system.l2.overall_avg_mshr_miss_latency::cpu.data 75642.215569                       # average overall mshr miss latency
system.l2.overall_avg_mshr_miss_latency::total 75671.484888                       # average overall mshr miss latency
system.membus.snoop_filter.tot_requests           761                       # Total number of requests made to the snoop filter.
system.membus.snoop_filter.hit_single_requests            0                       # Number of requests hitting in the snoop filter with a single holder of the requested data.
system.membus.snoop_filter.hit_multi_requests            0                       # Number of requests hitting in the snoop filter with multiple (>1) holders of the requested data.
system.membus.snoop_filter.tot_snoops               0                       # Total number of snoops made to the snoop filter.
system.membus.snoop_filter.hit_single_snoops            0                       # Number of snoops hitting in the snoop filter with a single holder of the requested data.
system.membus.snoop_filter.hit_multi_snoops            0                       # Number of snoops hitting in the snoop filter with multiple (>1) holders of the requested data.
system.membus.pwrStateResidencyTicks::UNDEFINED 2874943197500                       # Cumulative time (in ticks) in various power states
system.membus.trans_dist::ReadResp                700                       # Transaction distribution
system.membus.trans_dist::ReadExReq                61                       # Transaction distribution
system.membus.trans_dist::ReadExResp               61                       # Transaction distribution
system.membus.trans_dist::ReadSharedReq           700                       # Transaction distribution
system.membus.pkt_count_system.l2.mem_side::system.mem_ctrls.port         1522                       # Packet count per connected master and slave (bytes)
system.membus.pkt_count::total                   1522                       # Packet count per connected master and slave (bytes)
system.membus.pkt_size_system.l2.mem_side::system.mem_ctrls.port        48704                       # Cumulative packet size per connected master and slave (bytes)
system.membus.pkt_size::total                   48704                       # Cumulative packet size per connected master and slave (bytes)
system.membus.snoops                                0                       # Total snoops (count)
system.membus.snoopTraffic                          0                       # Total snoop traffic (bytes)
system.membus.snoop_fanout::samples               761                       # Request fanout histogram
system.membus.snoop_fanout::mean                    0                       # Request fanout histogram
system.membus.snoop_fanout::stdev                   0                       # Request fanout histogram
system.membus.snoop_fanout::underflows              0      0.00%      0.00% # Request fanout histogram
system.membus.snoop_fanout::0                     761    100.00%    100.00% # Request fanout histogram
system.membus.snoop_fanout::1                       0      0.00%    100.00% # Request fanout histogram
system.membus.snoop_fanout::overflows               0      0.00%    100.00% # Request fanout histogram
system.membus.snoop_fanout::min_value               0                       # Request fanout histogram
system.membus.snoop_fanout::max_value               0                       # Request fanout histogram
system.membus.snoop_fanout::total                 761                       # Request fanout histogram
system.membus.reqLayer0.occupancy              793500                       # Layer occupancy (ticks)
system.membus.reqLayer0.utilization               0.0                       # Layer utilization (%)
system.membus.respLayer1.occupancy            4066000                       # Layer occupancy (ticks)
system.membus.respLayer1.utilization              0.0                       # Layer utilization (%)
system.tol2bus.snoop_filter.tot_requests        20827                       # Total number of requests made to the snoop filter.
system.tol2bus.snoop_filter.hit_single_requests        10199                       # Number of requests hitting in the snoop filter with a single holder of the requested data.
system.tol2bus.snoop_filter.hit_multi_requests           36                       # Number of requests hitting in the snoop filter with multiple (>1) holders of the requested data.
system.tol2bus.snoop_filter.tot_snoops              0                       # Total number of snoops made to the snoop filter.
system.tol2bus.snoop_filter.hit_single_snoops            0                       # Number of snoops hitting in the snoop filter with a single holder of the requested data.
system.tol2bus.snoop_filter.hit_multi_snoops            0                       # Number of snoops hitting in the snoop filter with multiple (>1) holders of the requested data.
system.tol2bus.pwrStateResidencyTicks::UNDEFINED 2874943197500                       # Cumulative time (in ticks) in various power states
system.tol2bus.trans_dist::ReadResp             10585                       # Transaction distribution
system.tol2bus.trans_dist::WritebackDirty            2                       # Transaction distribution
system.tol2bus.trans_dist::WritebackClean        10164                       # Transaction distribution
system.tol2bus.trans_dist::CleanEvict              15                       # Transaction distribution
system.tol2bus.trans_dist::ReadExReq               61                       # Transaction distribution
system.tol2bus.trans_dist::ReadExResp              61                       # Transaction distribution
system.tol2bus.trans_dist::ReadCleanReq         10292                       # Transaction distribution
system.tol2bus.trans_dist::ReadSharedReq          293                       # Transaction distribution
system.tol2bus.pkt_count_system.cpu.icache.mem_side::system.l2.cpu_side        30748                       # Packet count per connected master and slave (bytes)
system.tol2bus.pkt_count_system.cpu.dcache.mem_side::system.l2.cpu_side          725                       # Packet count per connected master and slave (bytes)
system.tol2bus.pkt_count::total                 31473                       # Packet count per connected master and slave (bytes)
system.tol2bus.pkt_size_system.cpu.icache.mem_side::system.l2.cpu_side      1309184                       # Cumulative packet size per connected master and slave (bytes)
system.tol2bus.pkt_size_system.cpu.dcache.mem_side::system.l2.cpu_side        22784                       # Cumulative packet size per connected master and slave (bytes)
system.tol2bus.pkt_size::total                1331968                       # Cumulative packet size per connected master and slave (bytes)
system.tol2bus.snoops                               0                       # Total snoops (count)
system.tol2bus.snoopTraffic                         0                       # Total snoop traffic (bytes)
system.tol2bus.snoop_fanout::samples            10646                       # Request fanout histogram
system.tol2bus.snoop_fanout::mean            0.005072                       # Request fanout histogram
system.tol2bus.snoop_fanout::stdev           0.071043                       # Request fanout histogram
system.tol2bus.snoop_fanout::underflows             0      0.00%      0.00% # Request fanout histogram
system.tol2bus.snoop_fanout::0                  10592     99.49%     99.49% # Request fanout histogram
system.tol2bus.snoop_fanout::1                     54      0.51%    100.00% # Request fanout histogram
system.tol2bus.snoop_fanout::2                      0      0.00%    100.00% # Request fanout histogram
system.tol2bus.snoop_fanout::overflows              0      0.00%    100.00% # Request fanout histogram
system.tol2bus.snoop_fanout::min_value              0                       # Request fanout histogram
system.tol2bus.snoop_fanout::max_value              1                       # Request fanout histogram
system.tol2bus.snoop_fanout::total              10646                       # Request fanout histogram
system.tol2bus.reqLayer0.occupancy           20579500                       # Layer occupancy (ticks)
system.tol2bus.reqLayer0.utilization              0.0                       # Layer utilization (%)
system.tol2bus.respLayer0.occupancy          15438000                       # Layer occupancy (ticks)
system.tol2bus.respLayer0.utilization             0.0                       # Layer utilization (%)
system.tol2bus.respLayer1.occupancy            531000                       # Layer occupancy (ticks)
system.tol2bus.respLayer1.utilization             0.0                       # Layer utilization (%)

---------- End Simulation Statistics   ----------
