
---------- Begin Simulation Statistics ----------
sim_seconds                                  1.290893                       # Number of seconds simulated
sim_ticks                                1290893465000                       # Number of ticks simulated
final_tick                               1290893465000                       # Number of ticks from beginning of simulation (restored from checkpoints and never reset)
sim_freq                                 1000000000000                       # Frequency of simulated ticks
host_inst_rate                                 316559                       # Simulator instruction rate (inst/s)
host_op_rate                                   346116                       # Simulator op (including micro ops) rate (op/s)
host_tick_rate                              204699714                       # Simulator tick rate (ticks/s)
host_mem_usage                                 688856                       # Number of bytes of host memory used
host_seconds                                  6306.28                       # Real time elapsed on the host
sim_insts                                  1996310492                       # Number of instructions simulated
sim_ops                                    2182704285                       # Number of ops (including micro ops) simulated
system.voltage_domain.voltage                       1                       # Voltage in Volts
system.clk_domain.clock                          1000                       # Clock period in ticks
system.mem_ctrls.pwrStateResidencyTicks::UNDEFINED 1290893465000                       # Cumulative time (in ticks) in various power states
system.mem_ctrls.bytes_read::cpu.inst           35328                       # Number of bytes read from this memory
system.mem_ctrls.bytes_read::cpu.data           21120                       # Number of bytes read from this memory
system.mem_ctrls.bytes_read::total              56448                       # Number of bytes read from this memory
system.mem_ctrls.bytes_inst_read::cpu.inst        35328                       # Number of instructions bytes read from this memory
system.mem_ctrls.bytes_inst_read::total         35328                       # Number of instructions bytes read from this memory
system.mem_ctrls.num_reads::cpu.inst              552                       # Number of read requests responded to by this memory
system.mem_ctrls.num_reads::cpu.data              330                       # Number of read requests responded to by this memory
system.mem_ctrls.num_reads::total                 882                       # Number of read requests responded to by this memory
system.mem_ctrls.bw_read::cpu.inst              27367                       # Total read bandwidth from this memory (bytes/s)
system.mem_ctrls.bw_read::cpu.data              16361                       # Total read bandwidth from this memory (bytes/s)
system.mem_ctrls.bw_read::total                 43728                       # Total read bandwidth from this memory (bytes/s)
system.mem_ctrls.bw_inst_read::cpu.inst         27367                       # Instruction read bandwidth from this memory (bytes/s)
system.mem_ctrls.bw_inst_read::total            27367                       # Instruction read bandwidth from this memory (bytes/s)
system.mem_ctrls.bw_total::cpu.inst             27367                       # Total bandwidth to/from this memory (bytes/s)
system.mem_ctrls.bw_total::cpu.data             16361                       # Total bandwidth to/from this memory (bytes/s)
system.mem_ctrls.bw_total::total                43728                       # Total bandwidth to/from this memory (bytes/s)
system.mem_ctrls.readReqs                         883                       # Number of read requests accepted
system.mem_ctrls.writeReqs                          0                       # Number of write requests accepted
system.mem_ctrls.readBursts                       883                       # Number of DRAM read bursts, including those serviced by the write queue
system.mem_ctrls.writeBursts                        0                       # Number of DRAM write bursts, including those merged in the write queue
system.mem_ctrls.bytesReadDRAM                  56512                       # Total number of bytes read from DRAM
system.mem_ctrls.bytesReadWrQ                       0                       # Total number of bytes read from write queue
system.mem_ctrls.bytesWritten                       0                       # Total number of bytes written to DRAM
system.mem_ctrls.bytesReadSys                   56512                       # Total read bytes from the system interface side
system.mem_ctrls.bytesWrittenSys                    0                       # Total written bytes from the system interface side
system.mem_ctrls.servicedByWrQ                      0                       # Number of DRAM read bursts serviced by the write queue
system.mem_ctrls.mergedWrBursts                     0                       # Number of DRAM write bursts merged with an existing one
system.mem_ctrls.neitherReadNorWriteReqs            0                       # Number of requests that are neither read nor write
system.mem_ctrls.perBankRdBursts::0                68                       # Per bank write bursts
system.mem_ctrls.perBankRdBursts::1                 3                       # Per bank write bursts
system.mem_ctrls.perBankRdBursts::2                41                       # Per bank write bursts
system.mem_ctrls.perBankRdBursts::3                49                       # Per bank write bursts
system.mem_ctrls.perBankRdBursts::4                40                       # Per bank write bursts
system.mem_ctrls.perBankRdBursts::5               124                       # Per bank write bursts
system.mem_ctrls.perBankRdBursts::6                70                       # Per bank write bursts
system.mem_ctrls.perBankRdBursts::7                49                       # Per bank write bursts
system.mem_ctrls.perBankRdBursts::8                48                       # Per bank write bursts
system.mem_ctrls.perBankRdBursts::9                23                       # Per bank write bursts
system.mem_ctrls.perBankRdBursts::10               62                       # Per bank write bursts
system.mem_ctrls.perBankRdBursts::11               87                       # Per bank write bursts
system.mem_ctrls.perBankRdBursts::12               43                       # Per bank write bursts
system.mem_ctrls.perBankRdBursts::13               99                       # Per bank write bursts
system.mem_ctrls.perBankRdBursts::14               74                       # Per bank write bursts
system.mem_ctrls.perBankRdBursts::15                3                       # Per bank write bursts
system.mem_ctrls.perBankWrBursts::0                 0                       # Per bank write bursts
system.mem_ctrls.perBankWrBursts::1                 0                       # Per bank write bursts
system.mem_ctrls.perBankWrBursts::2                 0                       # Per bank write bursts
system.mem_ctrls.perBankWrBursts::3                 0                       # Per bank write bursts
system.mem_ctrls.perBankWrBursts::4                 0                       # Per bank write bursts
system.mem_ctrls.perBankWrBursts::5                 0                       # Per bank write bursts
system.mem_ctrls.perBankWrBursts::6                 0                       # Per bank write bursts
system.mem_ctrls.perBankWrBursts::7                 0                       # Per bank write bursts
system.mem_ctrls.perBankWrBursts::8                 0                       # Per bank write bursts
system.mem_ctrls.perBankWrBursts::9                 0                       # Per bank write bursts
system.mem_ctrls.perBankWrBursts::10                0                       # Per bank write bursts
system.mem_ctrls.perBankWrBursts::11                0                       # Per bank write bursts
system.mem_ctrls.perBankWrBursts::12                0                       # Per bank write bursts
system.mem_ctrls.perBankWrBursts::13                0                       # Per bank write bursts
system.mem_ctrls.perBankWrBursts::14                0                       # Per bank write bursts
system.mem_ctrls.perBankWrBursts::15                0                       # Per bank write bursts
system.mem_ctrls.numRdRetry                         0                       # Number of times read queue was full causing retry
system.mem_ctrls.numWrRetry                         0                       # Number of times write queue was full causing retry
system.mem_ctrls.totGap                  1290893429000                       # Total gap between requests
system.mem_ctrls.readPktSize::0                     0                       # Read request sizes (log2)
system.mem_ctrls.readPktSize::1                     0                       # Read request sizes (log2)
system.mem_ctrls.readPktSize::2                     0                       # Read request sizes (log2)
system.mem_ctrls.readPktSize::3                     0                       # Read request sizes (log2)
system.mem_ctrls.readPktSize::4                     0                       # Read request sizes (log2)
system.mem_ctrls.readPktSize::5                     0                       # Read request sizes (log2)
system.mem_ctrls.readPktSize::6                   883                       # Read request sizes (log2)
system.mem_ctrls.writePktSize::0                    0                       # Write request sizes (log2)
system.mem_ctrls.writePktSize::1                    0                       # Write request sizes (log2)
system.mem_ctrls.writePktSize::2                    0                       # Write request sizes (log2)
system.mem_ctrls.writePktSize::3                    0                       # Write request sizes (log2)
system.mem_ctrls.writePktSize::4                    0                       # Write request sizes (log2)
system.mem_ctrls.writePktSize::5                    0                       # Write request sizes (log2)
system.mem_ctrls.writePktSize::6                    0                       # Write request sizes (log2)
system.mem_ctrls.rdQLenPdf::0                     526                       # What read queue length does an incoming req see
system.mem_ctrls.rdQLenPdf::1                     240                       # What read queue length does an incoming req see
system.mem_ctrls.rdQLenPdf::2                      87                       # What read queue length does an incoming req see
system.mem_ctrls.rdQLenPdf::3                      21                       # What read queue length does an incoming req see
system.mem_ctrls.rdQLenPdf::4                       7                       # What read queue length does an incoming req see
system.mem_ctrls.rdQLenPdf::5                       2                       # What read queue length does an incoming req see
system.mem_ctrls.rdQLenPdf::6                       0                       # What read queue length does an incoming req see
system.mem_ctrls.rdQLenPdf::7                       0                       # What read queue length does an incoming req see
system.mem_ctrls.rdQLenPdf::8                       0                       # What read queue length does an incoming req see
system.mem_ctrls.rdQLenPdf::9                       0                       # What read queue length does an incoming req see
system.mem_ctrls.rdQLenPdf::10                      0                       # What read queue length does an incoming req see
system.mem_ctrls.rdQLenPdf::11                      0                       # What read queue length does an incoming req see
system.mem_ctrls.rdQLenPdf::12                      0                       # What read queue length does an incoming req see
system.mem_ctrls.rdQLenPdf::13                      0                       # What read queue length does an incoming req see
system.mem_ctrls.rdQLenPdf::14                      0                       # What read queue length does an incoming req see
system.mem_ctrls.rdQLenPdf::15                      0                       # What read queue length does an incoming req see
system.mem_ctrls.rdQLenPdf::16                      0                       # What read queue length does an incoming req see
system.mem_ctrls.rdQLenPdf::17                      0                       # What read queue length does an incoming req see
system.mem_ctrls.rdQLenPdf::18                      0                       # What read queue length does an incoming req see
system.mem_ctrls.rdQLenPdf::19                      0                       # What read queue length does an incoming req see
system.mem_ctrls.rdQLenPdf::20                      0                       # What read queue length does an incoming req see
system.mem_ctrls.rdQLenPdf::21                      0                       # What read queue length does an incoming req see
system.mem_ctrls.rdQLenPdf::22                      0                       # What read queue length does an incoming req see
system.mem_ctrls.rdQLenPdf::23                      0                       # What read queue length does an incoming req see
system.mem_ctrls.rdQLenPdf::24                      0                       # What read queue length does an incoming req see
system.mem_ctrls.rdQLenPdf::25                      0                       # What read queue length does an incoming req see
system.mem_ctrls.rdQLenPdf::26                      0                       # What read queue length does an incoming req see
system.mem_ctrls.rdQLenPdf::27                      0                       # What read queue length does an incoming req see
system.mem_ctrls.rdQLenPdf::28                      0                       # What read queue length does an incoming req see
system.mem_ctrls.rdQLenPdf::29                      0                       # What read queue length does an incoming req see
system.mem_ctrls.rdQLenPdf::30                      0                       # What read queue length does an incoming req see
system.mem_ctrls.rdQLenPdf::31                      0                       # What read queue length does an incoming req see
system.mem_ctrls.wrQLenPdf::0                       0                       # What write queue length does an incoming req see
system.mem_ctrls.wrQLenPdf::1                       0                       # What write queue length does an incoming req see
system.mem_ctrls.wrQLenPdf::2                       0                       # What write queue length does an incoming req see
system.mem_ctrls.wrQLenPdf::3                       0                       # What write queue length does an incoming req see
system.mem_ctrls.wrQLenPdf::4                       0                       # What write queue length does an incoming req see
system.mem_ctrls.wrQLenPdf::5                       0                       # What write queue length does an incoming req see
system.mem_ctrls.wrQLenPdf::6                       0                       # What write queue length does an incoming req see
system.mem_ctrls.wrQLenPdf::7                       0                       # What write queue length does an incoming req see
system.mem_ctrls.wrQLenPdf::8                       0                       # What write queue length does an incoming req see
system.mem_ctrls.wrQLenPdf::9                       0                       # What write queue length does an incoming req see
system.mem_ctrls.wrQLenPdf::10                      0                       # What write queue length does an incoming req see
system.mem_ctrls.wrQLenPdf::11                      0                       # What write queue length does an incoming req see
system.mem_ctrls.wrQLenPdf::12                      0                       # What write queue length does an incoming req see
system.mem_ctrls.wrQLenPdf::13                      0                       # What write queue length does an incoming req see
system.mem_ctrls.wrQLenPdf::14                      0                       # What write queue length does an incoming req see
system.mem_ctrls.wrQLenPdf::15                      0                       # What write queue length does an incoming req see
system.mem_ctrls.wrQLenPdf::16                      0                       # What write queue length does an incoming req see
system.mem_ctrls.wrQLenPdf::17                      0                       # What write queue length does an incoming req see
system.mem_ctrls.wrQLenPdf::18                      0                       # What write queue length does an incoming req see
system.mem_ctrls.wrQLenPdf::19                      0                       # What write queue length does an incoming req see
system.mem_ctrls.wrQLenPdf::20                      0                       # What write queue length does an incoming req see
system.mem_ctrls.wrQLenPdf::21                      0                       # What write queue length does an incoming req see
system.mem_ctrls.wrQLenPdf::22                      0                       # What write queue length does an incoming req see
system.mem_ctrls.wrQLenPdf::23                      0                       # What write queue length does an incoming req see
system.mem_ctrls.wrQLenPdf::24                      0                       # What write queue length does an incoming req see
system.mem_ctrls.wrQLenPdf::25                      0                       # What write queue length does an incoming req see
system.mem_ctrls.wrQLenPdf::26                      0                       # What write queue length does an incoming req see
system.mem_ctrls.wrQLenPdf::27                      0                       # What write queue length does an incoming req see
system.mem_ctrls.wrQLenPdf::28                      0                       # What write queue length does an incoming req see
system.mem_ctrls.wrQLenPdf::29                      0                       # What write queue length does an incoming req see
system.mem_ctrls.wrQLenPdf::30                      0                       # What write queue length does an incoming req see
system.mem_ctrls.wrQLenPdf::31                      0                       # What write queue length does an incoming req see
system.mem_ctrls.wrQLenPdf::32                      0                       # What write queue length does an incoming req see
system.mem_ctrls.wrQLenPdf::33                      0                       # What write queue length does an incoming req see
system.mem_ctrls.wrQLenPdf::34                      0                       # What write queue length does an incoming req see
system.mem_ctrls.wrQLenPdf::35                      0                       # What write queue length does an incoming req see
system.mem_ctrls.wrQLenPdf::36                      0                       # What write queue length does an incoming req see
system.mem_ctrls.wrQLenPdf::37                      0                       # What write queue length does an incoming req see
system.mem_ctrls.wrQLenPdf::38                      0                       # What write queue length does an incoming req see
system.mem_ctrls.wrQLenPdf::39                      0                       # What write queue length does an incoming req see
system.mem_ctrls.wrQLenPdf::40                      0                       # What write queue length does an incoming req see
system.mem_ctrls.wrQLenPdf::41                      0                       # What write queue length does an incoming req see
system.mem_ctrls.wrQLenPdf::42                      0                       # What write queue length does an incoming req see
system.mem_ctrls.wrQLenPdf::43                      0                       # What write queue length does an incoming req see
system.mem_ctrls.wrQLenPdf::44                      0                       # What write queue length does an incoming req see
system.mem_ctrls.wrQLenPdf::45                      0                       # What write queue length does an incoming req see
system.mem_ctrls.wrQLenPdf::46                      0                       # What write queue length does an incoming req see
system.mem_ctrls.wrQLenPdf::47                      0                       # What write queue length does an incoming req see
system.mem_ctrls.wrQLenPdf::48                      0                       # What write queue length does an incoming req see
system.mem_ctrls.wrQLenPdf::49                      0                       # What write queue length does an incoming req see
system.mem_ctrls.wrQLenPdf::50                      0                       # What write queue length does an incoming req see
system.mem_ctrls.wrQLenPdf::51                      0                       # What write queue length does an incoming req see
system.mem_ctrls.wrQLenPdf::52                      0                       # What write queue length does an incoming req see
system.mem_ctrls.wrQLenPdf::53                      0                       # What write queue length does an incoming req see
system.mem_ctrls.wrQLenPdf::54                      0                       # What write queue length does an incoming req see
system.mem_ctrls.wrQLenPdf::55                      0                       # What write queue length does an incoming req see
system.mem_ctrls.wrQLenPdf::56                      0                       # What write queue length does an incoming req see
system.mem_ctrls.wrQLenPdf::57                      0                       # What write queue length does an incoming req see
system.mem_ctrls.wrQLenPdf::58                      0                       # What write queue length does an incoming req see
system.mem_ctrls.wrQLenPdf::59                      0                       # What write queue length does an incoming req see
system.mem_ctrls.wrQLenPdf::60                      0                       # What write queue length does an incoming req see
system.mem_ctrls.wrQLenPdf::61                      0                       # What write queue length does an incoming req see
system.mem_ctrls.wrQLenPdf::62                      0                       # What write queue length does an incoming req see
system.mem_ctrls.wrQLenPdf::63                      0                       # What write queue length does an incoming req see
system.mem_ctrls.bytesPerActivate::samples          187                       # Bytes accessed per row activation
system.mem_ctrls.bytesPerActivate::mean    288.171123                       # Bytes accessed per row activation
system.mem_ctrls.bytesPerActivate::gmean   189.594825                       # Bytes accessed per row activation
system.mem_ctrls.bytesPerActivate::stdev   299.626672                       # Bytes accessed per row activation
system.mem_ctrls.bytesPerActivate::0-127           38     20.32%     20.32% # Bytes accessed per row activation
system.mem_ctrls.bytesPerActivate::128-255           92     49.20%     69.52% # Bytes accessed per row activation
system.mem_ctrls.bytesPerActivate::256-383           13      6.95%     76.47% # Bytes accessed per row activation
system.mem_ctrls.bytesPerActivate::384-511           10      5.35%     81.82% # Bytes accessed per row activation
system.mem_ctrls.bytesPerActivate::512-639            3      1.60%     83.42% # Bytes accessed per row activation
system.mem_ctrls.bytesPerActivate::640-767            4      2.14%     85.56% # Bytes accessed per row activation
system.mem_ctrls.bytesPerActivate::768-895            5      2.67%     88.24% # Bytes accessed per row activation
system.mem_ctrls.bytesPerActivate::896-1023            9      4.81%     93.05% # Bytes accessed per row activation
system.mem_ctrls.bytesPerActivate::1024-1151           13      6.95%    100.00% # Bytes accessed per row activation
system.mem_ctrls.bytesPerActivate::total          187                       # Bytes accessed per row activation
system.mem_ctrls.totQLat                     15390000                       # Total ticks spent queuing
system.mem_ctrls.totMemAccLat                31946250                       # Total ticks spent from burst creation until serviced by the DRAM
system.mem_ctrls.totBusLat                    4415000                       # Total ticks spent in databus transfers
system.mem_ctrls.avgQLat                     17429.22                       # Average queueing delay per DRAM burst
system.mem_ctrls.avgBusLat                    5000.00                       # Average bus latency per DRAM burst
system.mem_ctrls.avgMemAccLat                36179.22                       # Average memory access latency per DRAM burst
system.mem_ctrls.avgRdBW                         0.04                       # Average DRAM read bandwidth in MiByte/s
system.mem_ctrls.avgWrBW                         0.00                       # Average achieved write bandwidth in MiByte/s
system.mem_ctrls.avgRdBWSys                      0.04                       # Average system read bandwidth in MiByte/s
system.mem_ctrls.avgWrBWSys                      0.00                       # Average system write bandwidth in MiByte/s
system.mem_ctrls.peakBW                      12800.00                       # Theoretical peak bandwidth in MiByte/s
system.mem_ctrls.busUtil                         0.00                       # Data bus utilization in percentage
system.mem_ctrls.busUtilRead                     0.00                       # Data bus utilization in percentage for reads
system.mem_ctrls.busUtilWrite                    0.00                       # Data bus utilization in percentage for writes
system.mem_ctrls.avgRdQLen                       2.00                       # Average read queue length when enqueuing
system.mem_ctrls.avgWrQLen                       0.00                       # Average write queue length when enqueuing
system.mem_ctrls.readRowHits                      685                       # Number of row buffer hits during reads
system.mem_ctrls.writeRowHits                       0                       # Number of row buffer hits during writes
system.mem_ctrls.readRowHitRate                 77.58                       # Row buffer hit rate for reads
system.mem_ctrls.writeRowHitRate                  nan                       # Row buffer hit rate for writes
system.mem_ctrls.avgGap                  1461940463.19                       # Average gap between requests
system.mem_ctrls.pageHitRate                    77.58                       # Row buffer hit rate, read and write combined
system.mem_ctrls_0.actEnergy                   456960                       # Energy for activate commands per rank (pJ)
system.mem_ctrls_0.preEnergy                   216315                       # Energy for precharge commands per rank (pJ)
system.mem_ctrls_0.readEnergy                 3170160                       # Energy for read commands per rank (pJ)
system.mem_ctrls_0.writeEnergy                      0                       # Energy for write commands per rank (pJ)
system.mem_ctrls_0.refreshEnergy         3687840.000000                       # Energy for refresh commands per rank (pJ)
system.mem_ctrls_0.actBackEnergy              5384220                       # Energy for active background per rank (pJ)
system.mem_ctrls_0.preBackEnergy               173760                       # Energy for precharge background per rank (pJ)
system.mem_ctrls_0.actPowerDownEnergy        11763660                       # Energy for active power-down per rank (pJ)
system.mem_ctrls_0.prePowerDownEnergy         3332640                       # Energy for precharge power-down per rank (pJ)
system.mem_ctrls_0.selfRefreshEnergy     309803767140                       # Energy for self refresh per rank (pJ)
system.mem_ctrls_0.totalEnergy           309831952695                       # Total energy per rank (pJ)
system.mem_ctrls_0.averagePower            240.013573                       # Core power per rank (mW)
system.mem_ctrls_0.totalIdleTime         1290881205250                       # Total Idle time Per DRAM Rank
system.mem_ctrls_0.memoryStateTime::IDLE       293500                       # Time in different power states
system.mem_ctrls_0.memoryStateTime::REF       1566000                       # Time in different power states
system.mem_ctrls_0.memoryStateTime::SREF 1290846728000                       # Time in different power states
system.mem_ctrls_0.memoryStateTime::PRE_PDN      8679250                       # Time in different power states
system.mem_ctrls_0.memoryStateTime::ACT      10400250                       # Time in different power states
system.mem_ctrls_0.memoryStateTime::ACT_PDN     25798000                       # Time in different power states
system.mem_ctrls_1.actEnergy                   956760                       # Energy for activate commands per rank (pJ)
system.mem_ctrls_1.preEnergy                   493350                       # Energy for precharge commands per rank (pJ)
system.mem_ctrls_1.readEnergy                 3134460                       # Energy for read commands per rank (pJ)
system.mem_ctrls_1.writeEnergy                      0                       # Energy for write commands per rank (pJ)
system.mem_ctrls_1.refreshEnergy         37493040.000000                       # Energy for refresh commands per rank (pJ)
system.mem_ctrls_1.actBackEnergy             12023010                       # Energy for active background per rank (pJ)
system.mem_ctrls_1.preBackEnergy              1007520                       # Energy for precharge background per rank (pJ)
system.mem_ctrls_1.actPowerDownEnergy       160411680                       # Energy for active power-down per rank (pJ)
system.mem_ctrls_1.prePowerDownEnergy        32707680                       # Energy for precharge power-down per rank (pJ)
system.mem_ctrls_1.selfRefreshEnergy     309703708980                       # Energy for self refresh per rank (pJ)
system.mem_ctrls_1.totalEnergy           309951936480                       # Total energy per rank (pJ)
system.mem_ctrls_1.averagePower            240.106519                       # Core power per rank (mW)
system.mem_ctrls_1.totalIdleTime         1290863775750                       # Total Idle time Per DRAM Rank
system.mem_ctrls_1.memoryStateTime::IDLE       974000                       # Time in different power states
system.mem_ctrls_1.memoryStateTime::REF      15872000                       # Time in different power states
system.mem_ctrls_1.memoryStateTime::SREF 1290427518500                       # Time in different power states
system.mem_ctrls_1.memoryStateTime::PRE_PDN     85164750                       # Time in different power states
system.mem_ctrls_1.memoryStateTime::ACT      12122500                       # Time in different power states
system.mem_ctrls_1.memoryStateTime::ACT_PDN    351813250                       # Time in different power states
system.pwrStateResidencyTicks::UNDEFINED 1290893465000                       # Cumulative time (in ticks) in various power states
system.cpu.branchPred.lookups               745265720                       # Number of BP lookups
system.cpu.branchPred.condPredicted         479101632                       # Number of conditional branches predicted
system.cpu.branchPred.condIncorrect              4000                       # Number of conditional branches incorrect
system.cpu.branchPred.BTBLookups            612179365                       # Number of BTB lookups
system.cpu.branchPred.BTBHits               266167380                       # Number of BTB hits
system.cpu.branchPred.BTBCorrect                    0                       # Number of correct BTB predictions (this stat may not work properly.
system.cpu.branchPred.BTBHitPct             43.478659                       # BTB Hit Percentage
system.cpu.branchPred.usedRAS               106471418                       # Number of times the RAS was used to get a target.
system.cpu.branchPred.RASInCorrect                 16                       # Number of incorrect RAS predictions.
system.cpu.branchPred.indirectLookups        53234108                       # Number of indirect predictor lookups.
system.cpu.branchPred.indirectHits           53233852                       # Number of indirect target hits.
system.cpu.branchPred.indirectMisses              256                       # Number of indirect misses.
system.cpu.branchPredindirectMispredicted           97                       # Number of mispredicted indirect branches.
system.cpu_voltage_domain.voltage                   1                       # Voltage in Volts
system.cpu_clk_domain.clock                       500                       # Clock period in ticks
system.cpu.dstage2_mmu.stage2_tlb.walker.pwrStateResidencyTicks::UNDEFINED 1290893465000                       # Cumulative time (in ticks) in various power states
system.cpu.dstage2_mmu.stage2_tlb.walker.walks            0                       # Table walker walks requested
system.cpu.dstage2_mmu.stage2_tlb.walker.walkRequestOrigin_Requested::Data            0                       # Table walker requests started/completed, data/inst
system.cpu.dstage2_mmu.stage2_tlb.walker.walkRequestOrigin_Requested::Inst            0                       # Table walker requests started/completed, data/inst
system.cpu.dstage2_mmu.stage2_tlb.walker.walkRequestOrigin_Requested::total            0                       # Table walker requests started/completed, data/inst
system.cpu.dstage2_mmu.stage2_tlb.walker.walkRequestOrigin_Completed::Data            0                       # Table walker requests started/completed, data/inst
system.cpu.dstage2_mmu.stage2_tlb.walker.walkRequestOrigin_Completed::Inst            0                       # Table walker requests started/completed, data/inst
system.cpu.dstage2_mmu.stage2_tlb.walker.walkRequestOrigin_Completed::total            0                       # Table walker requests started/completed, data/inst
system.cpu.dstage2_mmu.stage2_tlb.walker.walkRequestOrigin::total            0                       # Table walker requests started/completed, data/inst
system.cpu.dstage2_mmu.stage2_tlb.inst_hits            0                       # ITB inst hits
system.cpu.dstage2_mmu.stage2_tlb.inst_misses            0                       # ITB inst misses
system.cpu.dstage2_mmu.stage2_tlb.read_hits            0                       # DTB read hits
system.cpu.dstage2_mmu.stage2_tlb.read_misses            0                       # DTB read misses
system.cpu.dstage2_mmu.stage2_tlb.write_hits            0                       # DTB write hits
system.cpu.dstage2_mmu.stage2_tlb.write_misses            0                       # DTB write misses
system.cpu.dstage2_mmu.stage2_tlb.flush_tlb            0                       # Number of times complete TLB was flushed
system.cpu.dstage2_mmu.stage2_tlb.flush_tlb_mva            0                       # Number of times TLB was flushed by MVA
system.cpu.dstage2_mmu.stage2_tlb.flush_tlb_mva_asid            0                       # Number of times TLB was flushed by MVA & ASID
system.cpu.dstage2_mmu.stage2_tlb.flush_tlb_asid            0                       # Number of times TLB was flushed by ASID
system.cpu.dstage2_mmu.stage2_tlb.flush_entries            0                       # Number of entries that have been flushed from TLB
system.cpu.dstage2_mmu.stage2_tlb.align_faults            0                       # Number of TLB faults due to alignment restrictions
system.cpu.dstage2_mmu.stage2_tlb.prefetch_faults            0                       # Number of TLB faults due to prefetch
system.cpu.dstage2_mmu.stage2_tlb.domain_faults            0                       # Number of TLB faults due to domain restrictions
system.cpu.dstage2_mmu.stage2_tlb.perms_faults            0                       # Number of TLB faults due to permissions restrictions
system.cpu.dstage2_mmu.stage2_tlb.read_accesses            0                       # DTB read accesses
system.cpu.dstage2_mmu.stage2_tlb.write_accesses            0                       # DTB write accesses
system.cpu.dstage2_mmu.stage2_tlb.inst_accesses            0                       # ITB inst accesses
system.cpu.dstage2_mmu.stage2_tlb.hits              0                       # DTB hits
system.cpu.dstage2_mmu.stage2_tlb.misses            0                       # DTB misses
system.cpu.dstage2_mmu.stage2_tlb.accesses            0                       # DTB accesses
system.cpu.dtb.walker.pwrStateResidencyTicks::UNDEFINED 1290893465000                       # Cumulative time (in ticks) in various power states
system.cpu.dtb.walker.walks                         0                       # Table walker walks requested
system.cpu.dtb.walker.walkRequestOrigin_Requested::Data            0                       # Table walker requests started/completed, data/inst
system.cpu.dtb.walker.walkRequestOrigin_Requested::Inst            0                       # Table walker requests started/completed, data/inst
system.cpu.dtb.walker.walkRequestOrigin_Requested::total            0                       # Table walker requests started/completed, data/inst
system.cpu.dtb.walker.walkRequestOrigin_Completed::Data            0                       # Table walker requests started/completed, data/inst
system.cpu.dtb.walker.walkRequestOrigin_Completed::Inst            0                       # Table walker requests started/completed, data/inst
system.cpu.dtb.walker.walkRequestOrigin_Completed::total            0                       # Table walker requests started/completed, data/inst
system.cpu.dtb.walker.walkRequestOrigin::total            0                       # Table walker requests started/completed, data/inst
system.cpu.dtb.inst_hits                            0                       # ITB inst hits
system.cpu.dtb.inst_misses                          0                       # ITB inst misses
system.cpu.dtb.read_hits                            0                       # DTB read hits
system.cpu.dtb.read_misses                          0                       # DTB read misses
system.cpu.dtb.write_hits                           0                       # DTB write hits
system.cpu.dtb.write_misses                         0                       # DTB write misses
system.cpu.dtb.flush_tlb                            0                       # Number of times complete TLB was flushed
system.cpu.dtb.flush_tlb_mva                        0                       # Number of times TLB was flushed by MVA
system.cpu.dtb.flush_tlb_mva_asid                   0                       # Number of times TLB was flushed by MVA & ASID
system.cpu.dtb.flush_tlb_asid                       0                       # Number of times TLB was flushed by ASID
system.cpu.dtb.flush_entries                        0                       # Number of entries that have been flushed from TLB
system.cpu.dtb.align_faults                         0                       # Number of TLB faults due to alignment restrictions
system.cpu.dtb.prefetch_faults                      0                       # Number of TLB faults due to prefetch
system.cpu.dtb.domain_faults                        0                       # Number of TLB faults due to domain restrictions
system.cpu.dtb.perms_faults                         0                       # Number of TLB faults due to permissions restrictions
system.cpu.dtb.read_accesses                        0                       # DTB read accesses
system.cpu.dtb.write_accesses                       0                       # DTB write accesses
system.cpu.dtb.inst_accesses                        0                       # ITB inst accesses
system.cpu.dtb.hits                                 0                       # DTB hits
system.cpu.dtb.misses                               0                       # DTB misses
system.cpu.dtb.accesses                             0                       # DTB accesses
system.cpu.istage2_mmu.stage2_tlb.walker.pwrStateResidencyTicks::UNDEFINED 1290893465000                       # Cumulative time (in ticks) in various power states
system.cpu.istage2_mmu.stage2_tlb.walker.walks            0                       # Table walker walks requested
system.cpu.istage2_mmu.stage2_tlb.walker.walkRequestOrigin_Requested::Data            0                       # Table walker requests started/completed, data/inst
system.cpu.istage2_mmu.stage2_tlb.walker.walkRequestOrigin_Requested::Inst            0                       # Table walker requests started/completed, data/inst
system.cpu.istage2_mmu.stage2_tlb.walker.walkRequestOrigin_Requested::total            0                       # Table walker requests started/completed, data/inst
system.cpu.istage2_mmu.stage2_tlb.walker.walkRequestOrigin_Completed::Data            0                       # Table walker requests started/completed, data/inst
system.cpu.istage2_mmu.stage2_tlb.walker.walkRequestOrigin_Completed::Inst            0                       # Table walker requests started/completed, data/inst
system.cpu.istage2_mmu.stage2_tlb.walker.walkRequestOrigin_Completed::total            0                       # Table walker requests started/completed, data/inst
system.cpu.istage2_mmu.stage2_tlb.walker.walkRequestOrigin::total            0                       # Table walker requests started/completed, data/inst
system.cpu.istage2_mmu.stage2_tlb.inst_hits            0                       # ITB inst hits
system.cpu.istage2_mmu.stage2_tlb.inst_misses            0                       # ITB inst misses
system.cpu.istage2_mmu.stage2_tlb.read_hits            0                       # DTB read hits
system.cpu.istage2_mmu.stage2_tlb.read_misses            0                       # DTB read misses
system.cpu.istage2_mmu.stage2_tlb.write_hits            0                       # DTB write hits
system.cpu.istage2_mmu.stage2_tlb.write_misses            0                       # DTB write misses
system.cpu.istage2_mmu.stage2_tlb.flush_tlb            0                       # Number of times complete TLB was flushed
system.cpu.istage2_mmu.stage2_tlb.flush_tlb_mva            0                       # Number of times TLB was flushed by MVA
system.cpu.istage2_mmu.stage2_tlb.flush_tlb_mva_asid            0                       # Number of times TLB was flushed by MVA & ASID
system.cpu.istage2_mmu.stage2_tlb.flush_tlb_asid            0                       # Number of times TLB was flushed by ASID
system.cpu.istage2_mmu.stage2_tlb.flush_entries            0                       # Number of entries that have been flushed from TLB
system.cpu.istage2_mmu.stage2_tlb.align_faults            0                       # Number of TLB faults due to alignment restrictions
system.cpu.istage2_mmu.stage2_tlb.prefetch_faults            0                       # Number of TLB faults due to prefetch
system.cpu.istage2_mmu.stage2_tlb.domain_faults            0                       # Number of TLB faults due to domain restrictions
system.cpu.istage2_mmu.stage2_tlb.perms_faults            0                       # Number of TLB faults due to permissions restrictions
system.cpu.istage2_mmu.stage2_tlb.read_accesses            0                       # DTB read accesses
system.cpu.istage2_mmu.stage2_tlb.write_accesses            0                       # DTB write accesses
system.cpu.istage2_mmu.stage2_tlb.inst_accesses            0                       # ITB inst accesses
system.cpu.istage2_mmu.stage2_tlb.hits              0                       # DTB hits
system.cpu.istage2_mmu.stage2_tlb.misses            0                       # DTB misses
system.cpu.istage2_mmu.stage2_tlb.accesses            0                       # DTB accesses
system.cpu.itb.walker.pwrStateResidencyTicks::UNDEFINED 1290893465000                       # Cumulative time (in ticks) in various power states
system.cpu.itb.walker.walks                         0                       # Table walker walks requested
system.cpu.itb.walker.walkRequestOrigin_Requested::Data            0                       # Table walker requests started/completed, data/inst
system.cpu.itb.walker.walkRequestOrigin_Requested::Inst            0                       # Table walker requests started/completed, data/inst
system.cpu.itb.walker.walkRequestOrigin_Requested::total            0                       # Table walker requests started/completed, data/inst
system.cpu.itb.walker.walkRequestOrigin_Completed::Data            0                       # Table walker requests started/completed, data/inst
system.cpu.itb.walker.walkRequestOrigin_Completed::Inst            0                       # Table walker requests started/completed, data/inst
system.cpu.itb.walker.walkRequestOrigin_Completed::total            0                       # Table walker requests started/completed, data/inst
system.cpu.itb.walker.walkRequestOrigin::total            0                       # Table walker requests started/completed, data/inst
system.cpu.itb.inst_hits                            0                       # ITB inst hits
system.cpu.itb.inst_misses                          0                       # ITB inst misses
system.cpu.itb.read_hits                            0                       # DTB read hits
system.cpu.itb.read_misses                          0                       # DTB read misses
system.cpu.itb.write_hits                           0                       # DTB write hits
system.cpu.itb.write_misses                         0                       # DTB write misses
system.cpu.itb.flush_tlb                            0                       # Number of times complete TLB was flushed
system.cpu.itb.flush_tlb_mva                        0                       # Number of times TLB was flushed by MVA
system.cpu.itb.flush_tlb_mva_asid                   0                       # Number of times TLB was flushed by MVA & ASID
system.cpu.itb.flush_tlb_asid                       0                       # Number of times TLB was flushed by ASID
system.cpu.itb.flush_entries                        0                       # Number of entries that have been flushed from TLB
system.cpu.itb.align_faults                         0                       # Number of TLB faults due to alignment restrictions
system.cpu.itb.prefetch_faults                      0                       # Number of TLB faults due to prefetch
system.cpu.itb.domain_faults                        0                       # Number of TLB faults due to domain restrictions
system.cpu.itb.perms_faults                         0                       # Number of TLB faults due to permissions restrictions
system.cpu.itb.read_accesses                        0                       # DTB read accesses
system.cpu.itb.write_accesses                       0                       # DTB write accesses
system.cpu.itb.inst_accesses                        0                       # ITB inst accesses
system.cpu.itb.hits                                 0                       # DTB hits
system.cpu.itb.misses                               0                       # DTB misses
system.cpu.itb.accesses                             0                       # DTB accesses
system.cpu.workload.num_syscalls                 3264                       # Number of system calls
system.cpu.pwrStateResidencyTicks::ON    1290893465000                       # Cumulative time (in ticks) in various power states
system.cpu.numCycles                       2581786931                       # number of cpu cycles simulated
system.cpu.numWorkItemsStarted                      0                       # number of work items this cpu started
system.cpu.numWorkItemsCompleted                    0                       # number of work items this cpu completed
system.cpu.fetch.icacheStallCycles          665446196                       # Number of cycles fetch is stalled on an Icache miss
system.cpu.fetch.Insts                     3513370533                       # Number of instructions fetch has processed
system.cpu.fetch.Branches                   745265720                       # Number of branches that fetch encountered
system.cpu.fetch.predictedBranches          425872650                       # Number of branches that fetch has predicted taken
system.cpu.fetch.Cycles                    1889673485                       # Number of cycles fetch has run and was not squashing or blocked
system.cpu.fetch.SquashCycles                53237307                       # Number of cycles fetch has spent squashing
system.cpu.fetch.MiscStallCycles                    1                       # Number of cycles fetch has spent waiting on interrupts, or bad addresses, or out of MSHRs
system.cpu.fetch.IcacheWaitRetryStallCycles           16                       # Number of stall cycles due to full MSHR
system.cpu.fetch.CacheLines                 638817665                       # Number of cache lines fetched
system.cpu.fetch.IcacheSquashes                  2237                       # Number of outstanding Icache misses that were squashed
system.cpu.fetch.rateDist::samples         2581738351                       # Number of instructions fetched each cycle (Total)
system.cpu.fetch.rateDist::mean              1.505219                       # Number of instructions fetched each cycle (Total)
system.cpu.fetch.rateDist::stdev             2.624746                       # Number of instructions fetched each cycle (Total)
system.cpu.fetch.rateDist::underflows               0      0.00%      0.00% # Number of instructions fetched each cycle (Total)
system.cpu.fetch.rateDist::0               1703377584     65.98%     65.98% # Number of instructions fetched each cycle (Total)
system.cpu.fetch.rateDist::1                186295209      7.22%     73.19% # Number of instructions fetched each cycle (Total)
system.cpu.fetch.rateDist::2                106492556      4.12%     77.32% # Number of instructions fetched each cycle (Total)
system.cpu.fetch.rateDist::3                133087399      5.15%     82.47% # Number of instructions fetched each cycle (Total)
system.cpu.fetch.rateDist::4                 26618070      1.03%     83.50% # Number of instructions fetched each cycle (Total)
system.cpu.fetch.rateDist::5                 53245990      2.06%     85.57% # Number of instructions fetched each cycle (Total)
system.cpu.fetch.rateDist::6                106450239      4.12%     89.69% # Number of instructions fetched each cycle (Total)
system.cpu.fetch.rateDist::7                 53234164      2.06%     91.75% # Number of instructions fetched each cycle (Total)
system.cpu.fetch.rateDist::8                212937140      8.25%    100.00% # Number of instructions fetched each cycle (Total)
system.cpu.fetch.rateDist::overflows                0      0.00%    100.00% # Number of instructions fetched each cycle (Total)
system.cpu.fetch.rateDist::min_value                0                       # Number of instructions fetched each cycle (Total)
system.cpu.fetch.rateDist::max_value                8                       # Number of instructions fetched each cycle (Total)
system.cpu.fetch.rateDist::total           2581738351                       # Number of instructions fetched each cycle (Total)
system.cpu.fetch.branchRate                  0.288663                       # Number of branch fetches per cycle
system.cpu.fetch.rate                        1.360829                       # Number of inst fetches per cycle
system.cpu.decode.IdleCycles                213022551                       # Number of cycles decode is idle
system.cpu.decode.BlockedCycles            1889559390                       # Number of cycles decode is blocked
system.cpu.decode.RunCycles                 372699038                       # Number of cycles decode is running
system.cpu.decode.UnblockCycles              79838987                       # Number of cycles decode is unblocking
system.cpu.decode.SquashCycles               26618385                       # Number of cycles decode is squashing
system.cpu.decode.BranchResolved            212933520                       # Number of times decode resolved a branch
system.cpu.decode.BranchMispred                   279                       # Number of times decode detected a branch misprediction
system.cpu.decode.DecodedInsts             2901303953                       # Number of instructions handled by decode
system.cpu.decode.SquashedInsts                   852                       # Number of squashed instructions handled by decode
system.cpu.rename.SquashCycles               26618385                       # Number of cycles rename is squashing
system.cpu.rename.IdleCycles                239635867                       # Number of cycles rename is idle
system.cpu.rename.BlockCycles                26617571                       # Number of cycles rename is blocking
system.cpu.rename.serializeStallCycles     1809716464                       # count of cycles rename stalled for serializing inst
system.cpu.rename.RunCycles                 425924692                       # Number of cycles rename is running
system.cpu.rename.UnblockCycles              53225372                       # Number of cycles rename is unblocking
system.cpu.rename.RenamedInsts             2528726026                       # Number of instructions processed by rename
system.cpu.rename.ROBFullEvents                     3                       # Number of times rename has blocked due to ROB full
system.cpu.rename.IQFullEvents                     44                       # Number of times rename has blocked due to IQ full
system.cpu.rename.LQFullEvents                      2                       # Number of times rename has blocked due to LQ full
system.cpu.rename.SQFullEvents                   1083                       # Number of times rename has blocked due to SQ full
system.cpu.rename.RenamedOperands          2395636924                       # Number of destination operands rename has renamed
system.cpu.rename.RenameLookups           11845047322                       # Number of register rename lookups that rename has made
system.cpu.rename.int_rename_lookups       2528809323                       # Number of integer rename lookups
system.cpu.rename.fp_rename_lookups                16                       # Number of floating rename lookups
system.cpu.rename.CommittedMaps            2102851673                       # Number of HB maps that are committed
system.cpu.rename.UndoneMaps                292785251                       # Number of HB maps that are undone due to squashing
system.cpu.rename.serializingInsts           79840334                       # count of serializing insts renamed
system.cpu.rename.tempSerializingInsts       79842058                       # count of temporary serializing insts renamed
system.cpu.rename.skidInsts                 452411951                       # count of insts added to the skid buffer
system.cpu.memDep0.insertedLoads            638858999                       # Number of loads inserted to the mem dependence unit.
system.cpu.memDep0.insertedStores           425899156                       # Number of stores inserted to the mem dependence unit.
system.cpu.memDep0.conflictingLoads         266116900                       # Number of conflicting loads.
system.cpu.memDep0.conflictingStores        133056155                       # Number of conflicting stores.
system.cpu.iq.iqInstsAdded                 2369048284                       # Number of instructions added to the IQ (excludes non-spec)
system.cpu.iq.iqNonSpecInstsAdded           159675674                       # Number of non-speculative instructions added to the IQ
system.cpu.iq.iqInstsIssued                2315813800                       # Number of instructions issued
system.cpu.iq.iqSquashedInstsIssued                31                       # Number of squashed instructions issued
system.cpu.iq.iqSquashedInstsExamined       346019673                       # Number of squashed instructions iterated over during squash; mainly for profiling
system.cpu.iq.iqSquashedOperandsExamined    878304141                       # Number of squashed operands that are examined and possibly removed from graph
system.cpu.iq.iqSquashedNonSpecRemoved       53227533                       # Number of squashed non-spec instructions that were removed
system.cpu.iq.issued_per_cycle::samples    2581738351                       # Number of insts issued each cycle
system.cpu.iq.issued_per_cycle::mean         0.896998                       # Number of insts issued each cycle
system.cpu.iq.issued_per_cycle::stdev        1.516197                       # Number of insts issued each cycle
system.cpu.iq.issued_per_cycle::underflows            0      0.00%      0.00% # Number of insts issued each cycle
system.cpu.iq.issued_per_cycle::0          1517056645     58.76%     58.76% # Number of insts issued each cycle
system.cpu.iq.issued_per_cycle::1           558903681     21.65%     80.41% # Number of insts issued each cycle
system.cpu.iq.issued_per_cycle::2           186333395      7.22%     87.63% # Number of insts issued each cycle
system.cpu.iq.issued_per_cycle::3           133092796      5.16%     92.78% # Number of insts issued each cycle
system.cpu.iq.issued_per_cycle::4            79870316      3.09%     95.88% # Number of insts issued each cycle
system.cpu.iq.issued_per_cycle::5            26628000      1.03%     96.91% # Number of insts issued each cycle
system.cpu.iq.issued_per_cycle::6            26631001      1.03%     97.94% # Number of insts issued each cycle
system.cpu.iq.issued_per_cycle::7            53222465      2.06%    100.00% # Number of insts issued each cycle
system.cpu.iq.issued_per_cycle::8                  52      0.00%    100.00% # Number of insts issued each cycle
system.cpu.iq.issued_per_cycle::overflows            0      0.00%    100.00% # Number of insts issued each cycle
system.cpu.iq.issued_per_cycle::min_value            0                       # Number of insts issued each cycle
system.cpu.iq.issued_per_cycle::max_value            8                       # Number of insts issued each cycle
system.cpu.iq.issued_per_cycle::total      2581738351                       # Number of insts issued each cycle
system.cpu.iq.fu_full::No_OpClass                   0      0.00%      0.00% # attempts to use FU when none available
system.cpu.iq.fu_full::IntAlu                      25      0.00%      0.00% # attempts to use FU when none available
system.cpu.iq.fu_full::IntMult                      0      0.00%      0.00% # attempts to use FU when none available
system.cpu.iq.fu_full::IntDiv                       0      0.00%      0.00% # attempts to use FU when none available
system.cpu.iq.fu_full::FloatAdd                     0      0.00%      0.00% # attempts to use FU when none available
system.cpu.iq.fu_full::FloatCmp                     0      0.00%      0.00% # attempts to use FU when none available
system.cpu.iq.fu_full::FloatCvt                     0      0.00%      0.00% # attempts to use FU when none available
system.cpu.iq.fu_full::FloatMult                    0      0.00%      0.00% # attempts to use FU when none available
system.cpu.iq.fu_full::FloatMultAcc                 0      0.00%      0.00% # attempts to use FU when none available
system.cpu.iq.fu_full::FloatDiv                     0      0.00%      0.00% # attempts to use FU when none available
system.cpu.iq.fu_full::FloatMisc                    0      0.00%      0.00% # attempts to use FU when none available
system.cpu.iq.fu_full::FloatSqrt                    0      0.00%      0.00% # attempts to use FU when none available
system.cpu.iq.fu_full::SimdAdd                      0      0.00%      0.00% # attempts to use FU when none available
system.cpu.iq.fu_full::SimdAddAcc                   0      0.00%      0.00% # attempts to use FU when none available
system.cpu.iq.fu_full::SimdAlu                      0      0.00%      0.00% # attempts to use FU when none available
system.cpu.iq.fu_full::SimdCmp                      0      0.00%      0.00% # attempts to use FU when none available
system.cpu.iq.fu_full::SimdCvt                      0      0.00%      0.00% # attempts to use FU when none available
system.cpu.iq.fu_full::SimdMisc                     0      0.00%      0.00% # attempts to use FU when none available
system.cpu.iq.fu_full::SimdMult                     0      0.00%      0.00% # attempts to use FU when none available
system.cpu.iq.fu_full::SimdMultAcc                  0      0.00%      0.00% # attempts to use FU when none available
system.cpu.iq.fu_full::SimdShift                    0      0.00%      0.00% # attempts to use FU when none available
system.cpu.iq.fu_full::SimdShiftAcc                 0      0.00%      0.00% # attempts to use FU when none available
system.cpu.iq.fu_full::SimdSqrt                     0      0.00%      0.00% # attempts to use FU when none available
system.cpu.iq.fu_full::SimdFloatAdd                 0      0.00%      0.00% # attempts to use FU when none available
system.cpu.iq.fu_full::SimdFloatAlu                 0      0.00%      0.00% # attempts to use FU when none available
system.cpu.iq.fu_full::SimdFloatCmp                 0      0.00%      0.00% # attempts to use FU when none available
system.cpu.iq.fu_full::SimdFloatCvt                 0      0.00%      0.00% # attempts to use FU when none available
system.cpu.iq.fu_full::SimdFloatDiv                 0      0.00%      0.00% # attempts to use FU when none available
system.cpu.iq.fu_full::SimdFloatMisc                0      0.00%      0.00% # attempts to use FU when none available
system.cpu.iq.fu_full::SimdFloatMult                0      0.00%      0.00% # attempts to use FU when none available
system.cpu.iq.fu_full::SimdFloatMultAcc             0      0.00%      0.00% # attempts to use FU when none available
system.cpu.iq.fu_full::SimdFloatSqrt                0      0.00%      0.00% # attempts to use FU when none available
system.cpu.iq.fu_full::MemRead               26621073     99.95%     99.95% # attempts to use FU when none available
system.cpu.iq.fu_full::MemWrite                 13188      0.05%    100.00% # attempts to use FU when none available
system.cpu.iq.fu_full::FloatMemRead                 0      0.00%    100.00% # attempts to use FU when none available
system.cpu.iq.fu_full::FloatMemWrite                4      0.00%    100.00% # attempts to use FU when none available
system.cpu.iq.fu_full::IprAccess                    0      0.00%    100.00% # attempts to use FU when none available
system.cpu.iq.fu_full::InstPrefetch                 0      0.00%    100.00% # attempts to use FU when none available
system.cpu.iq.FU_type_0::No_OpClass                 0      0.00%      0.00% # Type of FU issued
system.cpu.iq.FU_type_0::IntAlu            1357503241     58.62%     58.62% # Type of FU issued
system.cpu.iq.FU_type_0::IntMult                   18      0.00%     58.62% # Type of FU issued
system.cpu.iq.FU_type_0::IntDiv                     0      0.00%     58.62% # Type of FU issued
system.cpu.iq.FU_type_0::FloatAdd                   0      0.00%     58.62% # Type of FU issued
system.cpu.iq.FU_type_0::FloatCmp                   0      0.00%     58.62% # Type of FU issued
system.cpu.iq.FU_type_0::FloatCvt                   0      0.00%     58.62% # Type of FU issued
system.cpu.iq.FU_type_0::FloatMult                  0      0.00%     58.62% # Type of FU issued
system.cpu.iq.FU_type_0::FloatMultAcc               0      0.00%     58.62% # Type of FU issued
system.cpu.iq.FU_type_0::FloatDiv                   0      0.00%     58.62% # Type of FU issued
system.cpu.iq.FU_type_0::FloatMisc                  0      0.00%     58.62% # Type of FU issued
system.cpu.iq.FU_type_0::FloatSqrt                  0      0.00%     58.62% # Type of FU issued
system.cpu.iq.FU_type_0::SimdAdd                    0      0.00%     58.62% # Type of FU issued
system.cpu.iq.FU_type_0::SimdAddAcc                 0      0.00%     58.62% # Type of FU issued
system.cpu.iq.FU_type_0::SimdAlu                    0      0.00%     58.62% # Type of FU issued
system.cpu.iq.FU_type_0::SimdCmp                    0      0.00%     58.62% # Type of FU issued
system.cpu.iq.FU_type_0::SimdCvt                    0      0.00%     58.62% # Type of FU issued
system.cpu.iq.FU_type_0::SimdMisc                   0      0.00%     58.62% # Type of FU issued
system.cpu.iq.FU_type_0::SimdMult                   0      0.00%     58.62% # Type of FU issued
system.cpu.iq.FU_type_0::SimdMultAcc                0      0.00%     58.62% # Type of FU issued
system.cpu.iq.FU_type_0::SimdShift                  0      0.00%     58.62% # Type of FU issued
system.cpu.iq.FU_type_0::SimdShiftAcc               0      0.00%     58.62% # Type of FU issued
system.cpu.iq.FU_type_0::SimdSqrt                   0      0.00%     58.62% # Type of FU issued
system.cpu.iq.FU_type_0::SimdFloatAdd               0      0.00%     58.62% # Type of FU issued
system.cpu.iq.FU_type_0::SimdFloatAlu               0      0.00%     58.62% # Type of FU issued
system.cpu.iq.FU_type_0::SimdFloatCmp               0      0.00%     58.62% # Type of FU issued
system.cpu.iq.FU_type_0::SimdFloatCvt               0      0.00%     58.62% # Type of FU issued
system.cpu.iq.FU_type_0::SimdFloatDiv               0      0.00%     58.62% # Type of FU issued
system.cpu.iq.FU_type_0::SimdFloatMisc              0      0.00%     58.62% # Type of FU issued
system.cpu.iq.FU_type_0::SimdFloatMult              0      0.00%     58.62% # Type of FU issued
system.cpu.iq.FU_type_0::SimdFloatMultAcc            0      0.00%     58.62% # Type of FU issued
system.cpu.iq.FU_type_0::SimdFloatSqrt              0      0.00%     58.62% # Type of FU issued
system.cpu.iq.FU_type_0::MemRead            612250467     26.44%     85.06% # Type of FU issued
system.cpu.iq.FU_type_0::MemWrite           346060058     14.94%    100.00% # Type of FU issued
system.cpu.iq.FU_type_0::FloatMemRead               0      0.00%    100.00% # Type of FU issued
system.cpu.iq.FU_type_0::FloatMemWrite             16      0.00%    100.00% # Type of FU issued
system.cpu.iq.FU_type_0::IprAccess                  0      0.00%    100.00% # Type of FU issued
system.cpu.iq.FU_type_0::InstPrefetch               0      0.00%    100.00% # Type of FU issued
system.cpu.iq.FU_type_0::total             2315813800                       # Type of FU issued
system.cpu.iq.rate                           0.896981                       # Inst issue rate
system.cpu.iq.fu_busy_cnt                    26634290                       # FU busy when requested
system.cpu.iq.fu_busy_rate                   0.011501                       # FU busy rate (busy events/executed inst)
system.cpu.iq.int_inst_queue_reads         7240000236                       # Number of integer instruction queue reads
system.cpu.iq.int_inst_queue_writes        2901355028                       # Number of integer instruction queue writes
system.cpu.iq.int_inst_queue_wakeup_accesses   2289184764                       # Number of integer instruction queue wakeup accesses
system.cpu.iq.fp_inst_queue_reads                  36                       # Number of floating instruction queue reads
system.cpu.iq.fp_inst_queue_writes                 16                       # Number of floating instruction queue writes
system.cpu.iq.fp_inst_queue_wakeup_accesses           16                       # Number of floating instruction queue wakeup accesses
system.cpu.iq.int_alu_accesses             2342448070                       # Number of integer alu accesses
system.cpu.iq.fp_alu_accesses                      20                       # Number of floating point alu accesses
system.cpu.iew.lsq.thread0.forwLoads               66                       # Number of loads that had data forwarded from stores
system.cpu.iew.lsq.thread0.invAddrLoads             0                       # Number of loads ignored due to an invalid address
system.cpu.iew.lsq.thread0.squashedLoads    106467120                       # Number of loads squashed
system.cpu.iew.lsq.thread0.ignoredResponses            4                       # Number of memory responses ignored because the instruction is squashed
system.cpu.iew.lsq.thread0.memOrderViolation     26614669                       # Number of memory ordering violations
system.cpu.iew.lsq.thread0.squashedStores     79844516                       # Number of stores squashed
system.cpu.iew.lsq.thread0.invAddrSwpfs             0                       # Number of software prefetches ignored due to an invalid address
system.cpu.iew.lsq.thread0.blockedLoads             0                       # Number of blocked loads due to partial load-store forwarding
system.cpu.iew.lsq.thread0.rescheduledLoads         6557                       # Number of loads that were rescheduled
system.cpu.iew.lsq.thread0.cacheBlocked            18                       # Number of times an access to memory failed due to the cache being blocked
system.cpu.iew.iewIdleCycles                        0                       # Number of cycles IEW is idle
system.cpu.iew.iewSquashCycles               26618385                       # Number of cycles IEW is squashing
system.cpu.iew.iewBlockCycles                26617455                       # Number of cycles IEW is blocking
system.cpu.iew.iewUnblockCycles                    16                       # Number of cycles IEW is unblocking
system.cpu.iew.iewDispatchedInsts          2528723958                       # Number of instructions dispatched to IQ
system.cpu.iew.iewDispSquashedInsts                91                       # Number of squashed instructions skipped by dispatch
system.cpu.iew.iewDispLoadInsts             638858999                       # Number of dispatched load instructions
system.cpu.iew.iewDispStoreInsts            425899156                       # Number of dispatched store instructions
system.cpu.iew.iewDispNonSpecInsts           79840330                       # Number of dispatched non-speculative instructions
system.cpu.iew.iewIQFullEvents                     11                       # Number of times the IQ has become full, causing a stall
system.cpu.iew.iewLSQFullEvents                     3                       # Number of times the LSQ has become full, causing a stall
system.cpu.iew.memOrderViolationEvents       26614669                       # Number of memory order violations
system.cpu.iew.predictedTakenIncorrect             86                       # Number of branches that were predicted taken incorrectly
system.cpu.iew.predictedNotTakenIncorrect         3704                       # Number of branches that were predicted not taken incorrectly
system.cpu.iew.branchMispredicts                 3790                       # Number of branch mispredicts detected at execute
system.cpu.iew.iewExecutedInsts            2315809794                       # Number of executed instructions
system.cpu.iew.iewExecLoadInsts             612246889                       # Number of load instructions executed
system.cpu.iew.iewExecSquashedInsts              4006                       # Number of squashed instructions skipped in execute
system.cpu.iew.exec_swp                             0                       # number of swp insts executed
system.cpu.iew.exec_nop                             0                       # number of nop insts executed
system.cpu.iew.exec_refs                    958306898                       # number of memory reference insts executed
system.cpu.iew.exec_branches                452502204                       # Number of branches executed
system.cpu.iew.exec_stores                  346060009                       # Number of stores executed
system.cpu.iew.exec_rate                     0.896979                       # Inst execution rate
system.cpu.iew.wb_sent                     2315801000                       # cumulative count of insts sent to commit
system.cpu.iew.wb_count                    2289184780                       # cumulative count of insts written-back
system.cpu.iew.wb_producers                1304273495                       # num instructions producing a value
system.cpu.iew.wb_consumers                2129505738                       # num instructions consuming a value
system.cpu.iew.wb_rate                       0.886667                       # insts written-back per cycle
system.cpu.iew.wb_fanout                     0.612477                       # average fanout of values written-back
system.cpu.commit.commitSquashedInsts       346019678                       # The number of squashed insts skipped by commit
system.cpu.commit.commitNonSpecStalls       106448141                       # The number of times commit has been forced to stall to communicate backwards
system.cpu.commit.branchMispredicts              3732                       # The number of times a branch was mispredicted
system.cpu.commit.committed_per_cycle::samples   2528502813                       # Number of insts commited each cycle
system.cpu.commit.committed_per_cycle::mean     0.863240                       # Number of insts commited each cycle
system.cpu.commit.committed_per_cycle::stdev     1.798362                       # Number of insts commited each cycle
system.cpu.commit.committed_per_cycle::underflows            0      0.00%      0.00% # Number of insts commited each cycle
system.cpu.commit.committed_per_cycle::0   1650123559     65.26%     65.26% # Number of insts commited each cycle
system.cpu.commit.committed_per_cycle::1    425863278     16.84%     82.10% # Number of insts commited each cycle
system.cpu.commit.committed_per_cycle::2    266156277     10.53%     92.63% # Number of insts commited each cycle
system.cpu.commit.committed_per_cycle::3        23237      0.00%     92.63% # Number of insts commited each cycle
system.cpu.commit.committed_per_cycle::4     26621249      1.05%     93.68% # Number of insts commited each cycle
system.cpu.commit.committed_per_cycle::5     53238804      2.11%     95.79% # Number of insts commited each cycle
system.cpu.commit.committed_per_cycle::6         9936      0.00%     95.79% # Number of insts commited each cycle
system.cpu.commit.committed_per_cycle::7        11674      0.00%     95.79% # Number of insts commited each cycle
system.cpu.commit.committed_per_cycle::8    106454799      4.21%    100.00% # Number of insts commited each cycle
system.cpu.commit.committed_per_cycle::overflows            0      0.00%    100.00% # Number of insts commited each cycle
system.cpu.commit.committed_per_cycle::min_value            0                       # Number of insts commited each cycle
system.cpu.commit.committed_per_cycle::max_value            8                       # Number of insts commited each cycle
system.cpu.commit.committed_per_cycle::total   2528502813                       # Number of insts commited each cycle
system.cpu.commit.committedInsts           1996310492                       # Number of instructions committed
system.cpu.commit.committedOps             2182704285                       # Number of ops (including micro ops) committed
system.cpu.commit.swp_count                         0                       # Number of s/w prefetches committed
system.cpu.commit.refs                      878446519                       # Number of memory references committed
system.cpu.commit.loads                     532391879                       # Number of loads committed
system.cpu.commit.membars                    53222439                       # Number of memory barriers committed
system.cpu.commit.branches                  425885203                       # Number of branches committed
system.cpu.commit.fp_insts                         16                       # Number of committed floating point instructions.
system.cpu.commit.int_insts                1836682316                       # Number of committed integer instructions.
system.cpu.commit.function_calls             53235581                       # Number of function calls committed.
system.cpu.commit.op_class_0::No_OpClass            0      0.00%      0.00% # Class of committed instruction
system.cpu.commit.op_class_0::IntAlu       1304257751     59.75%     59.75% # Class of committed instruction
system.cpu.commit.op_class_0::IntMult              15      0.00%     59.75% # Class of committed instruction
system.cpu.commit.op_class_0::IntDiv                0      0.00%     59.75% # Class of committed instruction
system.cpu.commit.op_class_0::FloatAdd              0      0.00%     59.75% # Class of committed instruction
system.cpu.commit.op_class_0::FloatCmp              0      0.00%     59.75% # Class of committed instruction
system.cpu.commit.op_class_0::FloatCvt              0      0.00%     59.75% # Class of committed instruction
system.cpu.commit.op_class_0::FloatMult             0      0.00%     59.75% # Class of committed instruction
system.cpu.commit.op_class_0::FloatMultAcc            0      0.00%     59.75% # Class of committed instruction
system.cpu.commit.op_class_0::FloatDiv              0      0.00%     59.75% # Class of committed instruction
system.cpu.commit.op_class_0::FloatMisc             0      0.00%     59.75% # Class of committed instruction
system.cpu.commit.op_class_0::FloatSqrt             0      0.00%     59.75% # Class of committed instruction
system.cpu.commit.op_class_0::SimdAdd               0      0.00%     59.75% # Class of committed instruction
system.cpu.commit.op_class_0::SimdAddAcc            0      0.00%     59.75% # Class of committed instruction
system.cpu.commit.op_class_0::SimdAlu               0      0.00%     59.75% # Class of committed instruction
system.cpu.commit.op_class_0::SimdCmp               0      0.00%     59.75% # Class of committed instruction
system.cpu.commit.op_class_0::SimdCvt               0      0.00%     59.75% # Class of committed instruction
system.cpu.commit.op_class_0::SimdMisc              0      0.00%     59.75% # Class of committed instruction
system.cpu.commit.op_class_0::SimdMult              0      0.00%     59.75% # Class of committed instruction
system.cpu.commit.op_class_0::SimdMultAcc            0      0.00%     59.75% # Class of committed instruction
system.cpu.commit.op_class_0::SimdShift             0      0.00%     59.75% # Class of committed instruction
system.cpu.commit.op_class_0::SimdShiftAcc            0      0.00%     59.75% # Class of committed instruction
system.cpu.commit.op_class_0::SimdSqrt              0      0.00%     59.75% # Class of committed instruction
system.cpu.commit.op_class_0::SimdFloatAdd            0      0.00%     59.75% # Class of committed instruction
system.cpu.commit.op_class_0::SimdFloatAlu            0      0.00%     59.75% # Class of committed instruction
system.cpu.commit.op_class_0::SimdFloatCmp            0      0.00%     59.75% # Class of committed instruction
system.cpu.commit.op_class_0::SimdFloatCvt            0      0.00%     59.75% # Class of committed instruction
system.cpu.commit.op_class_0::SimdFloatDiv            0      0.00%     59.75% # Class of committed instruction
system.cpu.commit.op_class_0::SimdFloatMisc            0      0.00%     59.75% # Class of committed instruction
system.cpu.commit.op_class_0::SimdFloatMult            0      0.00%     59.75% # Class of committed instruction
system.cpu.commit.op_class_0::SimdFloatMultAcc            0      0.00%     59.75% # Class of committed instruction
system.cpu.commit.op_class_0::SimdFloatSqrt            0      0.00%     59.75% # Class of committed instruction
system.cpu.commit.op_class_0::MemRead       532391879     24.39%     84.15% # Class of committed instruction
system.cpu.commit.op_class_0::MemWrite      346054624     15.85%    100.00% # Class of committed instruction
system.cpu.commit.op_class_0::FloatMemRead            0      0.00%    100.00% # Class of committed instruction
[...]
system.l2.ReadSharedReq_miss_latency::total     73183500                       # number of ReadSharedReq miss cycles
system.l2.demand_miss_latency::cpu.inst      47762500                       # number of demand (read+write) miss cycles
system.l2.demand_miss_latency::cpu.data      30457000                       # number of demand (read+write) miss cycles
system.l2.demand_miss_latency::total         78219500                       # number of demand (read+write) miss cycles
system.l2.overall_miss_latency::cpu.inst     47762500                       # number of overall miss cycles
system.l2.overall_miss_latency::cpu.data     30457000                       # number of overall miss cycles
system.l2.overall_miss_latency::total        78219500                       # number of overall miss cycles
system.l2.ReadExReq_accesses::cpu.data             55                       # number of ReadExReq accesses(hits+misses)
system.l2.ReadExReq_accesses::total                55                       # number of ReadExReq accesses(hits+misses)
system.l2.ReadSharedReq_accesses::cpu.inst          626                       # number of ReadSharedReq accesses(hits+misses)
system.l2.ReadSharedReq_accesses::cpu.data          314                       # number of ReadSharedReq accesses(hits+misses)
system.l2.ReadSharedReq_accesses::total           940                       # number of ReadSharedReq accesses(hits+misses)
system.l2.demand_accesses::cpu.inst               626                       # number of demand (read+write) accesses
system.l2.demand_accesses::cpu.data               369                       # number of demand (read+write) accesses
system.l2.demand_accesses::total                  995                       # number of demand (read+write) accesses
system.l2.overall_accesses::cpu.inst              626                       # number of overall (read+write) accesses
system.l2.overall_accesses::cpu.data              369                       # number of overall (read+write) accesses
system.l2.overall_accesses::total                 995                       # number of overall (read+write) accesses
system.l2.ReadExReq_miss_rate::cpu.data             1                       # miss rate for ReadExReq accesses
system.l2.ReadExReq_miss_rate::total                1                       # miss rate for ReadExReq accesses
system.l2.ReadSharedReq_miss_rate::cpu.inst     0.888179                       # miss rate for ReadSharedReq accesses
system.l2.ReadSharedReq_miss_rate::cpu.data     0.904459                       # miss rate for ReadSharedReq accesses
system.l2.ReadSharedReq_miss_rate::total     0.893617                       # miss rate for ReadSharedReq accesses
system.l2.demand_miss_rate::cpu.inst         0.888179                       # miss rate for demand accesses
system.l2.demand_miss_rate::cpu.data         0.918699                       # miss rate for demand accesses
system.l2.demand_miss_rate::total            0.899497                       # miss rate for demand accesses
system.l2.overall_miss_rate::cpu.inst        0.888179                       # miss rate for overall accesses
system.l2.overall_miss_rate::cpu.data        0.918699                       # miss rate for overall accesses
system.l2.overall_miss_rate::total           0.899497                       # miss rate for overall accesses
system.l2.ReadExReq_avg_miss_latency::cpu.data 91563.636364                       # average ReadExReq miss latency
system.l2.ReadExReq_avg_miss_latency::total 91563.636364                       # average ReadExReq miss latency
system.l2.ReadSharedReq_avg_miss_latency::cpu.inst 85903.776978                       # average ReadSharedReq miss latency
system.l2.ReadSharedReq_avg_miss_latency::cpu.data 89510.563380                       # average ReadSharedReq miss latency
system.l2.ReadSharedReq_avg_miss_latency::total 87123.214286                       # average ReadSharedReq miss latency
system.l2.demand_avg_miss_latency::cpu.inst 85903.776978                       # average overall miss latency
system.l2.demand_avg_miss_latency::cpu.data 89843.657817                       # average overall miss latency
system.l2.demand_avg_miss_latency::total 87396.089385                       # average overall miss latency
system.l2.overall_avg_miss_latency::cpu.inst 85903.776978                       # average overall miss latency
system.l2.overall_avg_miss_latency::cpu.data 89843.657817                       # average overall miss latency
system.l2.overall_avg_miss_latency::total 87396.089385                       # average overall miss latency
system.l2.blocked_cycles::no_mshrs                  0                       # number of cycles access was blocked
system.l2.blocked_cycles::no_targets                0                       # number of cycles access was blocked
system.l2.blocked::no_mshrs                         0                       # number of cycles access was blocked
system.l2.blocked::no_targets                       0                       # number of cycles access was blocked
system.l2.avg_blocked_cycles::no_mshrs            nan                       # average number of cycles each access was blocked
system.l2.avg_blocked_cycles::no_targets          nan                       # average number of cycles each access was blocked
system.l2.ReadSharedReq_mshr_hits::cpu.inst            2                       # number of ReadSharedReq MSHR hits
system.l2.ReadSharedReq_mshr_hits::cpu.data            9                       # number of ReadSharedReq MSHR hits
system.l2.ReadSharedReq_mshr_hits::total           11                       # number of ReadSharedReq MSHR hits
system.l2.demand_mshr_hits::cpu.inst                2                       # number of demand (read+write) MSHR hits
system.l2.demand_mshr_hits::cpu.data                9                       # number of demand (read+write) MSHR hits
system.l2.demand_mshr_hits::total                  11                       # number of demand (read+write) MSHR hits
system.l2.overall_mshr_hits::cpu.inst               2                       # number of overall MSHR hits
system.l2.overall_mshr_hits::cpu.data               9                       # number of overall MSHR hits
system.l2.overall_mshr_hits::total                 11                       # number of overall MSHR hits
system.l2.ReadExReq_mshr_misses::cpu.data           55                       # number of ReadExReq MSHR misses
system.l2.ReadExReq_mshr_misses::total             55                       # number of ReadExReq MSHR misses
system.l2.ReadSharedReq_mshr_misses::cpu.inst          554                       # number of ReadSharedReq MSHR misses
system.l2.ReadSharedReq_mshr_misses::cpu.data          275                       # number of ReadSharedReq MSHR misses
system.l2.ReadSharedReq_mshr_misses::total          829                       # number of ReadSharedReq MSHR misses
system.l2.demand_mshr_misses::cpu.inst            554                       # number of demand (read+write) MSHR misses
system.l2.demand_mshr_misses::cpu.data            330                       # number of demand (read+write) MSHR misses
system.l2.demand_mshr_misses::total               884                       # number of demand (read+write) MSHR misses
system.l2.overall_mshr_misses::cpu.inst           554                       # number of overall MSHR misses
system.l2.overall_mshr_misses::cpu.data           330                       # number of overall MSHR misses
system.l2.overall_mshr_misses::total              884                       # number of overall MSHR misses
system.l2.ReadExReq_mshr_miss_latency::cpu.data      4486000                       # number of ReadExReq MSHR miss cycles
system.l2.ReadExReq_mshr_miss_latency::total      4486000                       # number of ReadExReq MSHR miss cycles
system.l2.ReadSharedReq_mshr_miss_latency::cpu.inst     41790000                       # number of ReadSharedReq MSHR miss cycles
system.l2.ReadSharedReq_mshr_miss_latency::cpu.data     21987500                       # number of ReadSharedReq MSHR miss cycles
system.l2.ReadSharedReq_mshr_miss_latency::total     63777500                       # number of ReadSharedReq MSHR miss cycles
system.l2.demand_mshr_miss_latency::cpu.inst     41790000                       # number of demand (read+write) MSHR miss cycles
system.l2.demand_mshr_miss_latency::cpu.data     26473500                       # number of demand (read+write) MSHR miss cycles
system.l2.demand_mshr_miss_latency::total     68263500                       # number of demand (read+write) MSHR miss cycles
system.l2.overall_mshr_miss_latency::cpu.inst     41790000                       # number of overall MSHR miss cycles
system.l2.overall_mshr_miss_latency::cpu.data     26473500                       # number of overall MSHR miss cycles
system.l2.overall_mshr_miss_latency::total     68263500                       # number of overall MSHR miss cycles
system.l2.ReadExReq_mshr_miss_rate::cpu.data            1                       # mshr miss rate for ReadExReq accesses
system.l2.ReadExReq_mshr_miss_rate::total            1                       # mshr miss rate for ReadExReq accesses
system.l2.ReadSharedReq_mshr_miss_rate::cpu.inst     0.884984                       # mshr miss rate for ReadSharedReq accesses
system.l2.ReadSharedReq_mshr_miss_rate::cpu.data     0.875796                       # mshr miss rate for ReadSharedReq accesses
system.l2.ReadSharedReq_mshr_miss_rate::total     0.881915                       # mshr miss rate for ReadSharedReq accesses
system.l2.demand_mshr_miss_rate::cpu.inst     0.884984                       # mshr miss rate for demand accesses
system.l2.demand_mshr_miss_rate::cpu.data     0.894309                       # mshr miss rate for demand accesses
system.l2.demand_mshr_miss_rate::total       0.888442                       # mshr miss rate for demand accesses
system.l2.overall_mshr_miss_rate::cpu.inst     0.884984                       # mshr miss rate for overall accesses
system.l2.overall_mshr_miss_rate::cpu.data     0.894309                       # mshr miss rate for overall accesses
system.l2.overall_mshr_miss_rate::total      0.888442                       # mshr miss rate for overall accesses
system.l2.ReadExReq_avg_mshr_miss_latency::cpu.data 81563.636364                       # average ReadExReq mshr miss latency
system.l2.ReadExReq_avg_mshr_miss_latency::total 81563.636364                       # average ReadExReq mshr miss latency
system.l2.ReadSharedReq_avg_mshr_miss_latency::cpu.inst 75433.212996                       # average ReadSharedReq mshr miss latency
system.l2.ReadSharedReq_avg_mshr_miss_latency::cpu.data 79954.545455                       # average ReadSharedReq mshr miss latency
system.l2.ReadSharedReq_avg_mshr_miss_latency::total 76933.051870                       # average ReadSharedReq mshr miss latency
system.l2.demand_avg_mshr_miss_latency::cpu.inst 75433.212996                       # average overall mshr miss latency
system.l2.demand_avg_mshr_miss_latency::cpu.data 80222.727273                       # average overall mshr miss latency
system.l2.demand_avg_mshr_miss_latency::total 77221.153846                       # average overall mshr miss latency
system.l2.overall_avg_mshr_miss_latency::cpu.inst 75433.212996                       # average overall mshr miss latency
system.l2.overall_avg_mshr_miss_latency::cpu.data 80222.727273                       # average overall mshr miss latency
system.l2.overall_avg_mshr_miss_latency::total 77221.153846                       # average overall mshr miss latency
system.membus.snoop_filter.tot_requests           883                       # Total number of requests made to the snoop filter.
system.membus.snoop_filter.hit_single_requests            0                       # Number of requests hitting in the snoop filter with a single holder of the requested data.
system.membus.snoop_filter.hit_multi_requests            0                       # Number of requests hitting in the snoop filter with multiple (>1) holders of the requested data.
system.membus.snoop_filter.tot_snoops               0                       # Total number of snoops made to the snoop filter.
system.membus.snoop_filter.hit_single_snoops            0                       # Number of snoops hitting in the snoop filter with a single holder of the requested data.
system.membus.snoop_filter.hit_multi_snoops            0                       # Number of snoops hitting in the snoop filter with multiple (>1) holders of the requested data.
system.membus.pwrStateResidencyTicks::UNDEFINED 1290893465000                       # Cumulative time (in ticks) in various power states
system.membus.trans_dist::ReadResp                827                       # Transaction distribution
system.membus.trans_dist::ReadExReq                55                       # Transaction distribution
system.membus.trans_dist::ReadExResp               55                       # Transaction distribution
system.membus.trans_dist::ReadSharedReq           828                       # Transaction distribution
system.membus.pkt_count_system.l2.mem_side::system.mem_ctrls.port         1765                       # Packet count per connected master and slave (bytes)
system.membus.pkt_count::total                   1765                       # Packet count per connected master and slave (bytes)
system.membus.pkt_size_system.l2.mem_side::system.mem_ctrls.port        56448                       # Cumulative packet size per connected master and slave (bytes)
system.membus.pkt_size::total                   56448                       # Cumulative packet size per connected master and slave (bytes)
system.membus.snoops                                0                       # Total snoops (count)
system.membus.snoopTraffic                          0                       # Total snoop traffic (bytes)
system.membus.snoop_fanout::samples               883                       # Request fanout histogram
system.membus.snoop_fanout::mean                    0                       # Request fanout histogram
system.membus.snoop_fanout::stdev                   0                       # Request fanout histogram
system.membus.snoop_fanout::underflows              0      0.00%      0.00% # Request fanout histogram
system.membus.snoop_fanout::0                     883    100.00%    100.00% # Request fanout histogram
system.membus.snoop_fanout::1                       0      0.00%    100.00% # Request fanout histogram
system.membus.snoop_fanout::overflows               0      0.00%    100.00% # Request fanout histogram
system.membus.snoop_fanout::min_value               0                       # Request fanout histogram
system.membus.snoop_fanout::max_value               0                       # Request fanout histogram
system.membus.snoop_fanout::total                 883                       # Request fanout histogram
system.membus.reqLayer0.occupancy             1123000                       # Layer occupancy (ticks)
system.membus.reqLayer0.utilization               0.0                       # Layer utilization (%)
system.membus.respLayer1.occupancy            4670750                       # Layer occupancy (ticks)
system.membus.respLayer1.utilization              0.0                       # Layer utilization (%)
system.tol2bus.snoop_filter.tot_requests         1192                       # Total number of requests made to the snoop filter.
system.tol2bus.snoop_filter.hit_single_requests          248                       # Number of requests hitting in the snoop filter with a single holder of the requested data.
system.tol2bus.snoop_filter.hit_multi_requests           18                       # Number of requests hitting in the snoop filter with multiple (>1) holders of the requested data.
system.tol2bus.snoop_filter.tot_snoops              0                       # Total number of snoops made to the snoop filter.
system.tol2bus.snoop_filter.hit_single_snoops            0                       # Number of snoops hitting in the snoop filter with a single holder of the requested data.
system.tol2bus.snoop_filter.hit_multi_snoops            0                       # Number of snoops hitting in the snoop filter with multiple (>1) holders of the requested data.
system.tol2bus.pwrStateResidencyTicks::UNDEFINED 1290893465000                       # Cumulative time (in ticks) in various power states
system.tol2bus.trans_dist::ReadResp               938                       # Transaction distribution
system.tol2bus.trans_dist::CleanEvict             197                       # Transaction distribution
system.tol2bus.trans_dist::ReadExReq               55                       # Transaction distribution
system.tol2bus.trans_dist::ReadExResp              55                       # Transaction distribution
system.tol2bus.trans_dist::ReadSharedReq          940                       # Transaction distribution
system.tol2bus.pkt_count_system.cpu.icache.mem_side::system.l2.cpu_side         1444                       # Packet count per connected master and slave (bytes)
system.tol2bus.pkt_count_system.cpu.dcache.mem_side::system.l2.cpu_side          741                       # Packet count per connected master and slave (bytes)
system.tol2bus.pkt_count::total                  2185                       # Packet count per connected master and slave (bytes)
system.tol2bus.pkt_size_system.cpu.icache.mem_side::system.l2.cpu_side        39936                       # Cumulative packet size per connected master and slave (bytes)
system.tol2bus.pkt_size_system.cpu.dcache.mem_side::system.l2.cpu_side        23616                       # Cumulative packet size per connected master and slave (bytes)
system.tol2bus.pkt_size::total                  63552                       # Cumulative packet size per connected master and slave (bytes)
system.tol2bus.snoops                               0                       # Total snoops (count)
system.tol2bus.snoopTraffic                         0                       # Total snoop traffic (bytes)
system.tol2bus.snoop_fanout::samples              995                       # Request fanout histogram
system.tol2bus.snoop_fanout::mean            0.069347                       # Request fanout histogram
system.tol2bus.snoop_fanout::stdev           0.254171                       # Request fanout histogram
system.tol2bus.snoop_fanout::underflows             0      0.00%      0.00% # Request fanout histogram
system.tol2bus.snoop_fanout::0                    926     93.07%     93.07% # Request fanout histogram
system.tol2bus.snoop_fanout::1                     69      6.93%    100.00% # Request fanout histogram
system.tol2bus.snoop_fanout::2                      0      0.00%    100.00% # Request fanout histogram
system.tol2bus.snoop_fanout::overflows              0      0.00%    100.00% # Request fanout histogram
system.tol2bus.snoop_fanout::min_value              0                       # Request fanout histogram
system.tol2bus.snoop_fanout::max_value              1                       # Request fanout histogram
system.tol2bus.snoop_fanout::total                995                       # Request fanout histogram
system.tol2bus.reqLayer0.occupancy             596000                       # Layer occupancy (ticks)
system.tol2bus.reqLayer0.utilization              0.0                       # Layer utilization (%)
system.tol2bus.respLayer0.occupancy            936998                       # Layer occupancy (ticks)
system.tol2bus.respLayer0.utilization             0.0                       # Layer utilization (%)
system.tol2bus.respLayer1.occupancy            557991                       # Layer occupancy (ticks)
system.tol2bus.respLayer1.utilization             0.0                       # Layer utilization (%)

---------- End Simulation Statistics   ----------
