
---------- Begin Simulation Statistics ----------
sim_seconds                                  0.500655                       # Number of seconds simulated
sim_ticks                                500654649500                       # Number of ticks simulated
final_tick                               500654649500                       # Number of ticks from beginning of simulation (restored from checkpoints and never reset)
sim_freq                                 1000000000000                       # Frequency of simulated ticks
host_inst_rate                                2114744                       # Simulator instruction rate (inst/s)
host_op_rate                                  2127912                       # Simulator op (including micro ops) rate (op/s)
host_tick_rate                             3215804917                       # Simulator tick rate (ticks/s)
host_mem_usage                                 686468                       # Number of bytes of host memory used
host_seconds                                   155.69                       # Real time elapsed on the host
sim_insts                                   329235205                       # Number of instructions simulated
sim_ops                                     331285316                       # Number of ops (including micro ops) simulated
system.voltage_domain.voltage                       1                       # Voltage in Volts
system.clk_domain.clock                          1000                       # Clock period in ticks
system.mem_ctrls.pwrStateResidencyTicks::UNDEFINED 500654649500                       # Cumulative time (in ticks) in various power states
system.mem_ctrls.bytes_read::cpu.inst           28800                       # Number of bytes read from this memory
system.mem_ctrls.bytes_read::cpu.data           19392                       # Number of bytes read from this memory
system.mem_ctrls.bytes_read::total              48192                       # Number of bytes read from this memory
system.mem_ctrls.bytes_inst_read::cpu.inst        28800                       # Number of instructions bytes read from this memory
system.mem_ctrls.bytes_inst_read::total         28800                       # Number of instructions bytes read from this memory
system.mem_ctrls.num_reads::cpu.inst              450                       # Number of read requests responded to by this memory
system.mem_ctrls.num_reads::cpu.data              303                       # Number of read requests responded to by this memory
system.mem_ctrls.num_reads::total                 753                       # Number of read requests responded to by this memory
system.mem_ctrls.bw_read::cpu.inst              57525                       # Total read bandwidth from this memory (bytes/s)
system.mem_ctrls.bw_read::cpu.data              38733                       # Total read bandwidth from this memory (bytes/s)
system.mem_ctrls.bw_read::total                 96258                       # Total read bandwidth from this memory (bytes/s)
system.mem_ctrls.bw_inst_read::cpu.inst         57525                       # Instruction read bandwidth from this memory (bytes/s)
system.mem_ctrls.bw_inst_read::total            57525                       # Instruction read bandwidth from this memory (bytes/s)
system.mem_ctrls.bw_total::cpu.inst             57525                       # Total bandwidth to/from this memory (bytes/s)
system.mem_ctrls.bw_total::cpu.data             38733                       # Total bandwidth to/from this memory (bytes/s)
system.mem_ctrls.bw_total::total                96258                       # Total bandwidth to/from this memory (bytes/s)
system.mem_ctrls.readReqs                         753                       # Number of read requests accepted
system.mem_ctrls.writeReqs                          0                       # Number of write requests accepted
system.mem_ctrls.readBursts                       753                       # Number of DRAM read bursts, including those serviced by the write queue
system.mem_ctrls.writeBursts                        0                       # Number of DRAM write bursts, including those merged in the write queue
system.mem_ctrls.bytesReadDRAM                  48192                       # Total number of bytes read from DRAM
system.mem_ctrls.bytesReadWrQ                       0                       # Total number of bytes read from write queue
system.mem_ctrls.bytesWritten                       0                       # Total number of bytes written to DRAM
system.mem_ctrls.bytesReadSys                   48192                       # Total read bytes from the system interface side
system.mem_ctrls.bytesWrittenSys                    0                       # Total written bytes from the system interface side
system.mem_ctrls.servicedByWrQ                      0                       # Number of DRAM read bursts serviced by the write queue
system.mem_ctrls.mergedWrBursts                     0                       # Number of DRAM write bursts merged with an existing one
system.mem_ctrls.neitherReadNorWriteReqs            0                       # Number of requests that are neither read nor write
system.mem_ctrls.perBankRdBursts::0                92                       # Per bank write bursts
system.mem_ctrls.perBankRdBursts::1                 1                       # Per bank write bursts
system.mem_ctrls.perBankRdBursts::2                25                       # Per bank write bursts
system.mem_ctrls.perBankRdBursts::3                48                       # Per bank write bursts
system.mem_ctrls.perBankRdBursts::4                22                       # Per bank write bursts
system.mem_ctrls.perBankRdBursts::5                95                       # Per bank write bursts
system.mem_ctrls.perBankRdBursts::6                68                       # Per bank write bursts
system.mem_ctrls.perBankRdBursts::7                28                       # Per bank write bursts
system.mem_ctrls.perBankRdBursts::8                36                       # Per bank write bursts
system.mem_ctrls.perBankRdBursts::9                18                       # Per bank write bursts
system.mem_ctrls.perBankRdBursts::10               53                       # Per bank write bursts
system.mem_ctrls.perBankRdBursts::11              107                       # Per bank write bursts
system.mem_ctrls.perBankRdBursts::12               34                       # Per bank write bursts
system.mem_ctrls.perBankRdBursts::13               92                       # Per bank write bursts
system.mem_ctrls.perBankRdBursts::14               30                       # Per bank write bursts
system.mem_ctrls.perBankRdBursts::15                4                       # Per bank write bursts
system.mem_ctrls.perBankWrBursts::0                 0                       # Per bank write bursts
system.mem_ctrls.perBankWrBursts::1                 0                       # Per bank write bursts
system.mem_ctrls.perBankWrBursts::2                 0                       # Per bank write bursts
system.mem_ctrls.perBankWrBursts::3                 0                       # Per bank write bursts
system.mem_ctrls.perBankWrBursts::4                 0                       # Per bank write bursts
system.mem_ctrls.perBankWrBursts::5                 0                       # Per bank write bursts
system.mem_ctrls.perBankWrBursts::6                 0                       # Per bank write bursts
system.mem_ctrls.perBankWrBursts::7                 0                       # Per bank write bursts
system.mem_ctrls.perBankWrBursts::8                 0                       # Per bank write bursts
system.mem_ctrls.perBankWrBursts::9                 0                       # Per bank write bursts
system.mem_ctrls.perBankWrBursts::10                0                       # Per bank write bursts
system.mem_ctrls.perBankWrBursts::11                0                       # Per bank write bursts
system.mem_ctrls.perBankWrBursts::12                0                       # Per bank write bursts
system.mem_ctrls.perBankWrBursts::13                0                       # Per bank write bursts
system.mem_ctrls.perBankWrBursts::14                0                       # Per bank write bursts
system.mem_ctrls.perBankWrBursts::15                0                       # Per bank write bursts
system.mem_ctrls.numRdRetry                         0                       # Number of times read queue was full causing retry
system.mem_ctrls.numWrRetry                         0                       # Number of times write queue was full causing retry
system.mem_ctrls.totGap                  500654552500                       # Total gap between requests
system.mem_ctrls.readPktSize::0                     0                       # Read request sizes (log2)
system.mem_ctrls.readPktSize::1                     0                       # Read request sizes (log2)
system.mem_ctrls.readPktSize::2                     0                       # Read request sizes (log2)
system.mem_ctrls.readPktSize::3                     0                       # Read request sizes (log2)
system.mem_ctrls.readPktSize::4                     0                       # Read request sizes (log2)
system.mem_ctrls.readPktSize::5                     0                       # Read request sizes (log2)
system.mem_ctrls.readPktSize::6                   753                       # Read request sizes (log2)
system.mem_ctrls.writePktSize::0                    0                       # Write request sizes (log2)
system.mem_ctrls.writePktSize::1                    0                       # Write request sizes (log2)
system.mem_ctrls.writePktSize::2                    0                       # Write request sizes (log2)
system.mem_ctrls.writePktSize::3                    0                       # Write request sizes (log2)
system.mem_ctrls.writePktSize::4                    0                       # Write request sizes (log2)
system.mem_ctrls.writePktSize::5                    0                       # Write request sizes (log2)
system.mem_ctrls.writePktSize::6                    0                       # Write request sizes (log2)
system.mem_ctrls.rdQLenPdf::0                     752                       # What read queue length does an incoming req see
system.mem_ctrls.rdQLenPdf::1                       1                       # What read queue length does an incoming req see
system.mem_ctrls.rdQLenPdf::2                       0                       # What read queue length does an incoming req see
system.mem_ctrls.rdQLenPdf::3                       0                       # What read queue length does an incoming req see
system.mem_ctrls.rdQLenPdf::4                       0                       # What read queue length does an incoming req see
system.mem_ctrls.rdQLenPdf::5                       0                       # What read queue length does an incoming req see
system.mem_ctrls.rdQLenPdf::6                       0                       # What read queue length does an incoming req see
system.mem_ctrls.rdQLenPdf::7                       0                       # What read queue length does an incoming req see
system.mem_ctrls.rdQLenPdf::8                       0                       # What read queue length does an incoming req see
system.mem_ctrls.rdQLenPdf::9                       0                       # What read queue length does an incoming req see
system.mem_ctrls.rdQLenPdf::10                      0                       # What read queue length does an incoming req see
system.mem_ctrls.rdQLenPdf::11                      0                       # What read queue length does an incoming req see
system.mem_ctrls.rdQLenPdf::12                      0                       # What read queue length does an incoming req see
system.mem_ctrls.rdQLenPdf::13                      0                       # What read queue length does an incoming req see
system.mem_ctrls.rdQLenPdf::14                      0                       # What read queue length does an incoming req see
system.mem_ctrls.rdQLenPdf::15                      0                       # What read queue length does an incoming req see
system.mem_ctrls.rdQLenPdf::16                      0                       # What read queue length does an incoming req see
system.mem_ctrls.rdQLenPdf::17                      0                       # What read queue length does an incoming req see
system.mem_ctrls.rdQLenPdf::18                      0                       # What read queue length does an incoming req see
system.mem_ctrls.rdQLenPdf::19                      0                       # What read queue length does an incoming req see
system.mem_ctrls.rdQLenPdf::20                      0                       # What read queue length does an incoming req see
system.mem_ctrls.rdQLenPdf::21                      0                       # What read queue length does an incoming req see
system.mem_ctrls.rdQLenPdf::22                      0                       # What read queue length does an incoming req see
system.mem_ctrls.rdQLenPdf::23                      0                       # What read queue length does an incoming req see
system.mem_ctrls.rdQLenPdf::24                      0                       # What read queue length does an incoming req see
system.mem_ctrls.rdQLenPdf::25                      0                       # What read queue length does an incoming req see
system.mem_ctrls.rdQLenPdf::26                      0                       # What read queue length does an incoming req see
system.mem_ctrls.rdQLenPdf::27                      0                       # What read queue length does an incoming req see
system.mem_ctrls.rdQLenPdf::28                      0                       # What read queue length does an incoming req see
system.mem_ctrls.rdQLenPdf::29                      0                       # What read queue length does an incoming req see
system.mem_ctrls.rdQLenPdf::30                      0                       # What read queue length does an incoming req see
system.mem_ctrls.rdQLenPdf::31                      0                       # What read queue length does an incoming req see
system.mem_ctrls.wrQLenPdf::0                       0                       # What write queue length does an incoming req see
system.mem_ctrls.wrQLenPdf::1                       0                       # What write queue length does an incoming req see
system.mem_ctrls.wrQLenPdf::2                       0                       # What write queue length does an incoming req see
system.mem_ctrls.wrQLenPdf::3                       0                       # What write queue length does an incoming req see
system.mem_ctrls.wrQLenPdf::4                       0                       # What write queue length does an incoming req see
system.mem_ctrls.wrQLenPdf::5                       0                       # What write queue length does an incoming req see
system.mem_ctrls.wrQLenPdf::6                       0                       # What write queue length does an incoming req see
system.mem_ctrls.wrQLenPdf::7                       0                       # What write queue length does an incoming req see
system.mem_ctrls.wrQLenPdf::8                       0                       # What write queue length does an incoming req see
system.mem_ctrls.wrQLenPdf::9                       0                       # What write queue length does an incoming req see
system.mem_ctrls.wrQLenPdf::10                      0                       # What write queue length does an incoming req see
system.mem_ctrls.wrQLenPdf::11                      0                       # What write queue length does an incoming req see
system.mem_ctrls.wrQLenPdf::12                      0                       # What write queue length does an incoming req see
system.mem_ctrls.wrQLenPdf::13                      0                       # What write queue length does an incoming req see
system.mem_ctrls.wrQLenPdf::14                      0                       # What write queue length does an incoming req see
system.mem_ctrls.wrQLenPdf::15                      0                       # What write queue length does an incoming req see
system.mem_ctrls.wrQLenPdf::16                      0                       # What write queue length does an incoming req see
system.mem_ctrls.wrQLenPdf::17                      0                       # What write queue length does an incoming req see
system.mem_ctrls.wrQLenPdf::18                      0                       # What write queue length does an incoming req see
system.mem_ctrls.wrQLenPdf::19                      0                       # What write queue length does an incoming req see
system.mem_ctrls.wrQLenPdf::20                      0                       # What write queue length does an incoming req see
system.mem_ctrls.wrQLenPdf::21                      0                       # What write queue length does an incoming req see
system.mem_ctrls.wrQLenPdf::22                      0                       # What write queue length does an incoming req see
system.mem_ctrls.wrQLenPdf::23                      0                       # What write queue length does an incoming req see
system.mem_ctrls.wrQLenPdf::24                      0                       # What write queue length does an incoming req see
system.mem_ctrls.wrQLenPdf::25                      0                       # What write queue length does an incoming req see
system.mem_ctrls.wrQLenPdf::26                      0                       # What write queue length does an incoming req see
system.mem_ctrls.wrQLenPdf::27                      0                       # What write queue length does an incoming req see
system.mem_ctrls.wrQLenPdf::28                      0                       # What write queue length does an incoming req see
system.mem_ctrls.wrQLenPdf::29                      0                       # What write queue length does an incoming req see
system.mem_ctrls.wrQLenPdf::30                      0                       # What write queue length does an incoming req see
system.mem_ctrls.wrQLenPdf::31                      0                       # What write queue length does an incoming req see
system.mem_ctrls.wrQLenPdf::32                      0                       # What write queue length does an incoming req see
system.mem_ctrls.wrQLenPdf::33                      0                       # What write queue length does an incoming req see
system.mem_ctrls.wrQLenPdf::34                      0                       # What write queue length does an incoming req see
system.mem_ctrls.wrQLenPdf::35                      0                       # What write queue length does an incoming req see
system.mem_ctrls.wrQLenPdf::36                      0                       # What write queue length does an incoming req see
system.mem_ctrls.wrQLenPdf::37                      0                       # What write queue length does an incoming req see
system.mem_ctrls.wrQLenPdf::38                      0                       # What write queue length does an incoming req see
system.mem_ctrls.wrQLenPdf::39                      0                       # What write queue length does an incoming req see
system.mem_ctrls.wrQLenPdf::40                      0                       # What write queue length does an incoming req see
system.mem_ctrls.wrQLenPdf::41                      0                       # What write queue length does an incoming req see
system.mem_ctrls.wrQLenPdf::42                      0                       # What write queue length does an incoming req see
system.mem_ctrls.wrQLenPdf::43                      0                       # What write queue length does an incoming req see
system.mem_ctrls.wrQLenPdf::44                      0                       # What write queue length does an incoming req see
system.mem_ctrls.wrQLenPdf::45                      0                       # What write queue length does an incoming req see
system.mem_ctrls.wrQLenPdf::46                      0                       # What write queue length does an incoming req see
system.mem_ctrls.wrQLenPdf::47                      0                       # What write queue length does an incoming req see
system.mem_ctrls.wrQLenPdf::48                      0                       # What write queue length does an incoming req see
system.mem_ctrls.wrQLenPdf::49                      0                       # What write queue length does an incoming req see
system.mem_ctrls.wrQLenPdf::50                      0                       # What write queue length does an incoming req see
system.mem_ctrls.wrQLenPdf::51                      0                       # What write queue length does an incoming req see
system.mem_ctrls.wrQLenPdf::52                      0                       # What write queue length does an incoming req see
system.mem_ctrls.wrQLenPdf::53                      0                       # What write queue length does an incoming req see
system.mem_ctrls.wrQLenPdf::54                      0                       # What write queue length does an incoming req see
system.mem_ctrls.wrQLenPdf::55                      0                       # What write queue length does an incoming req see
system.mem_ctrls.wrQLenPdf::56                      0                       # What write queue length does an incoming req see
system.mem_ctrls.wrQLenPdf::57                      0                       # What write queue length does an incoming req see
system.mem_ctrls.wrQLenPdf::58                      0                       # What write queue length does an incoming req see
system.mem_ctrls.wrQLenPdf::59                      0                       # What write queue length does an incoming req see
system.mem_ctrls.wrQLenPdf::60                      0                       # What write queue length does an incoming req see
system.mem_ctrls.wrQLenPdf::61                      0                       # What write queue length does an incoming req see
system.mem_ctrls.wrQLenPdf::62                      0                       # What write queue length does an incoming req see
system.mem_ctrls.wrQLenPdf::63                      0                       # What write queue length does an incoming req see
system.mem_ctrls.bytesPerActivate::samples          239                       # Bytes accessed per row activation
system.mem_ctrls.bytesPerActivate::mean    196.016736                       # Bytes accessed per row activation
system.mem_ctrls.bytesPerActivate::gmean   117.921802                       # Bytes accessed per row activation
system.mem_ctrls.bytesPerActivate::stdev   251.389015                       # Bytes accessed per row activation
system.mem_ctrls.bytesPerActivate::0-127          147     61.51%     61.51% # Bytes accessed per row activation
system.mem_ctrls.bytesPerActivate::128-255           39     16.32%     77.82% # Bytes accessed per row activation
system.mem_ctrls.bytesPerActivate::256-383           16      6.69%     84.52% # Bytes accessed per row activation
system.mem_ctrls.bytesPerActivate::384-511            7      2.93%     87.45% # Bytes accessed per row activation
system.mem_ctrls.bytesPerActivate::512-639            8      3.35%     90.79% # Bytes accessed per row activation
system.mem_ctrls.bytesPerActivate::640-767            4      1.67%     92.47% # Bytes accessed per row activation
system.mem_ctrls.bytesPerActivate::768-895            5      2.09%     94.56% # Bytes accessed per row activation
system.mem_ctrls.bytesPerActivate::896-1023            3      1.26%     95.82% # Bytes accessed per row activation
system.mem_ctrls.bytesPerActivate::1024-1151           10      4.18%    100.00% # Bytes accessed per row activation
system.mem_ctrls.bytesPerActivate::total          239                       # Bytes accessed per row activation
system.mem_ctrls.totQLat                     27289500                       # Total ticks spent queuing
system.mem_ctrls.totMemAccLat                41408250                       # Total ticks spent from burst creation until serviced by the DRAM
system.mem_ctrls.totBusLat                    3765000                       # Total ticks spent in databus transfers
system.mem_ctrls.avgQLat                     36241.04                       # Average queueing delay per DRAM burst
system.mem_ctrls.avgBusLat                    5000.00                       # Average bus latency per DRAM burst
system.mem_ctrls.avgMemAccLat                54991.04                       # Average memory access latency per DRAM burst
system.mem_ctrls.avgRdBW                         0.10                       # Average DRAM read bandwidth in MiByte/s
system.mem_ctrls.avgWrBW                         0.00                       # Average achieved write bandwidth in MiByte/s
system.mem_ctrls.avgRdBWSys                      0.10                       # Average system read bandwidth in MiByte/s
system.mem_ctrls.avgWrBWSys                      0.00                       # Average system write bandwidth in MiByte/s
system.mem_ctrls.peakBW                      12800.00                       # Theoretical peak bandwidth in MiByte/s
system.mem_ctrls.busUtil                         0.00                       # Data bus utilization in percentage
system.mem_ctrls.busUtilRead                     0.00                       # Data bus utilization in percentage for reads
system.mem_ctrls.busUtilWrite                    0.00                       # Data bus utilization in percentage for writes
system.mem_ctrls.avgRdQLen                       1.00                       # Average read queue length when enqueuing
system.mem_ctrls.avgWrQLen                       0.00                       # Average write queue length when enqueuing
system.mem_ctrls.readRowHits                      506                       # Number of row buffer hits during reads
system.mem_ctrls.writeRowHits                       0                       # Number of row buffer hits during writes
system.mem_ctrls.readRowHitRate                 67.20                       # Row buffer hit rate for reads
system.mem_ctrls.writeRowHitRate                  nan                       # Row buffer hit rate for writes
system.mem_ctrls.avgGap                  664879883.80                       # Average gap between requests
system.mem_ctrls.pageHitRate                    67.20                       # Row buffer hit rate, read and write combined
system.mem_ctrls_0.actEnergy                   442680                       # Energy for activate commands per rank (pJ)
system.mem_ctrls_0.preEnergy                   216315                       # Energy for precharge commands per rank (pJ)
system.mem_ctrls_0.readEnergy                 2706060                       # Energy for read commands per rank (pJ)
system.mem_ctrls_0.writeEnergy                      0                       # Energy for write commands per rank (pJ)
system.mem_ctrls_0.refreshEnergy         11678160.000000                       # Energy for refresh commands per rank (pJ)
system.mem_ctrls_0.actBackEnergy              7217910                       # Energy for active background per rank (pJ)
system.mem_ctrls_0.preBackEnergy               525120                       # Energy for precharge background per rank (pJ)
system.mem_ctrls_0.actPowerDownEnergy        37882200                       # Energy for active power-down per rank (pJ)
system.mem_ctrls_0.prePowerDownEnergy        11534400                       # Energy for precharge power-down per rank (pJ)
system.mem_ctrls_0.selfRefreshEnergy     120127498620                       # Energy for self refresh per rank (pJ)
system.mem_ctrls_0.totalEnergy           120199701465                       # Total energy per rank (pJ)
system.mem_ctrls_0.averagePower            240.085060                       # Core power per rank (mW)
system.mem_ctrls_0.totalIdleTime         500637258000                       # Total Idle time Per DRAM Rank
system.mem_ctrls_0.memoryStateTime::IDLE       881500                       # Time in different power states
system.mem_ctrls_0.memoryStateTime::REF       4958000                       # Time in different power states
system.mem_ctrls_0.memoryStateTime::SREF 500524340000                       # Time in different power states
system.mem_ctrls_0.memoryStateTime::PRE_PDN     30036500                       # Time in different power states
system.mem_ctrls_0.memoryStateTime::ACT      11345250                       # Time in different power states
system.mem_ctrls_0.memoryStateTime::ACT_PDN     83088250                       # Time in different power states
system.mem_ctrls_1.actEnergy                  1320900                       # Energy for activate commands per rank (pJ)
system.mem_ctrls_1.preEnergy                   690690                       # Energy for precharge commands per rank (pJ)
system.mem_ctrls_1.readEnergy                 2670360                       # Energy for read commands per rank (pJ)
system.mem_ctrls_1.writeEnergy                      0                       # Energy for write commands per rank (pJ)
system.mem_ctrls_1.refreshEnergy         113708400.000000                       # Energy for refresh commands per rank (pJ)
system.mem_ctrls_1.actBackEnergy             26368770                       # Energy for active background per rank (pJ)
system.mem_ctrls_1.preBackEnergy              5073120                       # Energy for precharge background per rank (pJ)
system.mem_ctrls_1.actPowerDownEnergy       251364300                       # Energy for active power-down per rank (pJ)
system.mem_ctrls_1.prePowerDownEnergy       231901440                       # Energy for precharge power-down per rank (pJ)
system.mem_ctrls_1.selfRefreshEnergy     119879398800                       # Energy for self refresh per rank (pJ)
system.mem_ctrls_1.totalEnergy           120512496780                       # Total energy per rank (pJ)
system.mem_ctrls_1.averagePower            240.709832                       # Core power per rank (mW)
system.mem_ctrls_1.totalIdleTime         500583567500                       # Total Idle time Per DRAM Rank
system.mem_ctrls_1.memoryStateTime::IDLE      8766000                       # Time in different power states
system.mem_ctrls_1.memoryStateTime::REF      48280000                       # Time in different power states
system.mem_ctrls_1.memoryStateTime::SREF 499428465250                       # Time in different power states
system.mem_ctrls_1.memoryStateTime::PRE_PDN    603910000                       # Time in different power states
system.mem_ctrls_1.memoryStateTime::ACT      13989000                       # Time in different power states
system.mem_ctrls_1.memoryStateTime::ACT_PDN    551239250                       # Time in different power states
system.pwrStateResidencyTicks::UNDEFINED 500654649500                       # Cumulative time (in ticks) in various power states
system.cpu_voltage_domain.voltage                   1                       # Voltage in Volts
system.cpu_clk_domain.clock                       500                       # Clock period in ticks
system.cpu.dstage2_mmu.stage2_tlb.walker.pwrStateResidencyTicks::UNDEFINED 500654649500                       # Cumulative time (in ticks) in various power states
system.cpu.dstage2_mmu.stage2_tlb.walker.walks            0                       # Table walker walks requested
system.cpu.dstage2_mmu.stage2_tlb.walker.walkRequestOrigin_Requested::Data            0                       # Table walker requests started/completed, data/inst
system.cpu.dstage2_mmu.stage2_tlb.walker.walkRequestOrigin_Requested::Inst            0                       # Table walker requests started/completed, data/inst
system.cpu.dstage2_mmu.stage2_tlb.walker.walkRequestOrigin_Requested::total            0                       # Table walker requests started/completed, data/inst
system.cpu.dstage2_mmu.stage2_tlb.walker.walkRequestOrigin_Completed::Data            0                       # Table walker requests started/completed, data/inst
system.cpu.dstage2_mmu.stage2_tlb.walker.walkRequestOrigin_Completed::Inst            0                       # Table walker requests started/completed, data/inst
system.cpu.dstage2_mmu.stage2_tlb.walker.walkRequestOrigin_Completed::total            0                       # Table walker requests started/completed, data/inst
system.cpu.dstage2_mmu.stage2_tlb.walker.walkRequestOrigin::total            0                       # Table walker requests started/completed, data/inst
system.cpu.dstage2_mmu.stage2_tlb.inst_hits            0                       # ITB inst hits
system.cpu.dstage2_mmu.stage2_tlb.inst_misses            0                       # ITB inst misses
system.cpu.dstage2_mmu.stage2_tlb.read_hits            0                       # DTB read hits
system.cpu.dstage2_mmu.stage2_tlb.read_misses            0                       # DTB read misses
system.cpu.dstage2_mmu.stage2_tlb.write_hits            0                       # DTB write hits
system.cpu.dstage2_mmu.stage2_tlb.write_misses            0                       # DTB write misses
system.cpu.dstage2_mmu.stage2_tlb.flush_tlb            0                       # Number of times complete TLB was flushed
system.cpu.dstage2_mmu.stage2_tlb.flush_tlb_mva            0                       # Number of times TLB was flushed by MVA
system.cpu.dstage2_mmu.stage2_tlb.flush_tlb_mva_asid            0                       # Number of times TLB was flushed by MVA & ASID
system.cpu.dstage2_mmu.stage2_tlb.flush_tlb_asid            0                       # Number of times TLB was flushed by ASID
system.cpu.dstage2_mmu.stage2_tlb.flush_entries            0                       # Number of entries that have been flushed from TLB
system.cpu.dstage2_mmu.stage2_tlb.align_faults            0                       # Number of TLB faults due to alignment restrictions
system.cpu.dstage2_mmu.stage2_tlb.prefetch_faults            0                       # Number of TLB faults due to prefetch
system.cpu.dstage2_mmu.stage2_tlb.domain_faults            0                       # Number of TLB faults due to domain restrictions
system.cpu.dstage2_mmu.stage2_tlb.perms_faults            0                       # Number of TLB faults due to permissions restrictions
system.cpu.dstage2_mmu.stage2_tlb.read_accesses            0                       # DTB read accesses
system.cpu.dstage2_mmu.stage2_tlb.write_accesses            0                       # DTB write accesses
system.cpu.dstage2_mmu.stage2_tlb.inst_accesses            0                       # ITB inst accesses
system.cpu.dstage2_mmu.stage2_tlb.hits              0                       # DTB hits
system.cpu.dstage2_mmu.stage2_tlb.misses            0                       # DTB misses
system.cpu.dstage2_mmu.stage2_tlb.accesses            0                       # DTB accesses
system.cpu.dtb.walker.pwrStateResidencyTicks::UNDEFINED 500654649500                       # Cumulative time (in ticks) in various power states
system.cpu.dtb.walker.walks                         0                       # Table walker walks requested
system.cpu.dtb.walker.walkRequestOrigin_Requested::Data            0                       # Table walker requests started/completed, data/inst
system.cpu.dtb.walker.walkRequestOrigin_Requested::Inst            0                       # Table walker requests started/completed, data/inst
system.cpu.dtb.walker.walkRequestOrigin_Requested::total            0                       # Table walker requests started/completed, data/inst
system.cpu.dtb.walker.walkRequestOrigin_Completed::Data            0                       # Table walker requests started/completed, data/inst
system.cpu.dtb.walker.walkRequestOrigin_Completed::Inst            0                       # Table walker requests started/completed, data/inst
system.cpu.dtb.walker.walkRequestOrigin_Completed::total            0                       # Table walker requests started/completed, data/inst
system.cpu.dtb.walker.walkRequestOrigin::total            0                       # Table walker requests started/completed, data/inst
system.cpu.dtb.inst_hits                            0                       # ITB inst hits
system.cpu.dtb.inst_misses                          0                       # ITB inst misses
system.cpu.dtb.read_hits                            0                       # DTB read hits
system.cpu.dtb.read_misses                          0                       # DTB read misses
system.cpu.dtb.write_hits                           0                       # DTB write hits
system.cpu.dtb.write_misses                         0                       # DTB write misses
system.cpu.dtb.flush_tlb                            0                       # Number of times complete TLB was flushed
system.cpu.dtb.flush_tlb_mva                        0                       # Number of times TLB was flushed by MVA
system.cpu.dtb.flush_tlb_mva_asid                   0                       # Number of times TLB was flushed by MVA & ASID
system.cpu.dtb.flush_tlb_asid                       0                       # Number of times TLB was flushed by ASID
system.cpu.dtb.flush_entries                        0                       # Number of entries that have been flushed from TLB
system.cpu.dtb.align_faults                         0                       # Number of TLB faults due to alignment restrictions
system.cpu.dtb.prefetch_faults                      0                       # Number of TLB faults due to prefetch
system.cpu.dtb.domain_faults                        0                       # Number of TLB faults due to domain restrictions
system.cpu.dtb.perms_faults                         0                       # Number of TLB faults due to permissions restrictions
system.cpu.dtb.read_accesses                        0                       # DTB read accesses
system.cpu.dtb.write_accesses                       0                       # DTB write accesses
system.cpu.dtb.inst_accesses                        0                       # ITB inst accesses
system.cpu.dtb.hits                                 0                       # DTB hits
system.cpu.dtb.misses                               0                       # DTB misses
system.cpu.dtb.accesses                             0                       # DTB accesses
system.cpu.istage2_mmu.stage2_tlb.walker.pwrStateResidencyTicks::UNDEFINED 500654649500                       # Cumulative time (in ticks) in various power states
system.cpu.istage2_mmu.stage2_tlb.walker.walks            0                       # Table walker walks requested
system.cpu.istage2_mmu.stage2_tlb.walker.walkRequestOrigin_Requested::Data            0                       # Table walker requests started/completed, data/inst
system.cpu.istage2_mmu.stage2_tlb.walker.walkRequestOrigin_Requested::Inst            0                       # Table walker requests started/completed, data/inst
system.cpu.istage2_mmu.stage2_tlb.walker.walkRequestOrigin_Requested::total            0                       # Table walker requests started/completed, data/inst
system.cpu.istage2_mmu.stage2_tlb.walker.walkRequestOrigin_Completed::Data            0                       # Table walker requests started/completed, data/inst
system.cpu.istage2_mmu.stage2_tlb.walker.walkRequestOrigin_Completed::Inst            0                       # Table walker requests started/completed, data/inst
system.cpu.istage2_mmu.stage2_tlb.walker.walkRequestOrigin_Completed::total            0                       # Table walker requests started/completed, data/inst
system.cpu.istage2_mmu.stage2_tlb.walker.walkRequestOrigin::total            0                       # Table walker requests started/completed, data/inst
system.cpu.istage2_mmu.stage2_tlb.inst_hits            0                       # ITB inst hits
system.cpu.istage2_mmu.stage2_tlb.inst_misses            0                       # ITB inst misses
system.cpu.istage2_mmu.stage2_tlb.read_hits            0                       # DTB read hits
system.cpu.istage2_mmu.stage2_tlb.read_misses            0                       # DTB read misses
system.cpu.istage2_mmu.stage2_tlb.write_hits            0                       # DTB write hits
system.cpu.istage2_mmu.stage2_tlb.write_misses            0                       # DTB write misses
system.cpu.istage2_mmu.stage2_tlb.flush_tlb            0                       # Number of times complete TLB was flushed
system.cpu.istage2_mmu.stage2_tlb.flush_tlb_mva            0                       # Number of times TLB was flushed by MVA
system.cpu.istage2_mmu.stage2_tlb.flush_tlb_mva_asid            0                       # Number of times TLB was flushed by MVA & ASID
system.cpu.istage2_mmu.stage2_tlb.flush_tlb_asid            0                       # Number of times TLB was flushed by ASID
system.cpu.istage2_mmu.stage2_tlb.flush_entries            0                       # Number of entries that have been flushed from TLB
system.cpu.istage2_mmu.stage2_tlb.align_faults            0                       # Number of TLB faults due to alignment restrictions
system.cpu.istage2_mmu.stage2_tlb.prefetch_faults            0                       # Number of TLB faults due to prefetch
system.cpu.istage2_mmu.stage2_tlb.domain_faults            0                       # Number of TLB faults due to domain restrictions
system.cpu.istage2_mmu.stage2_tlb.perms_faults            0                       # Number of TLB faults due to permissions restrictions
system.cpu.istage2_mmu.stage2_tlb.read_accesses            0                       # DTB read accesses
system.cpu.istage2_mmu.stage2_tlb.write_accesses            0                       # DTB write accesses
system.cpu.istage2_mmu.stage2_tlb.inst_accesses            0                       # ITB inst accesses
system.cpu.istage2_mmu.stage2_tlb.hits              0                       # DTB hits
system.cpu.istage2_mmu.stage2_tlb.misses            0                       # DTB misses
system.cpu.istage2_mmu.stage2_tlb.accesses            0                       # DTB accesses
system.cpu.itb.walker.pwrStateResidencyTicks::UNDEFINED 500654649500                       # Cumulative time (in ticks) in various power states
system.cpu.itb.walker.walks                         0                       # Table walker walks requested
system.cpu.itb.walker.walkRequestOrigin_Requested::Data            0                       # Table walker requests started/completed, data/inst
system.cpu.itb.walker.walkRequestOrigin_Requested::Inst            0                       # Table walker requests started/completed, data/inst
system.cpu.itb.walker.walkRequestOrigin_Requested::total            0                       # Table walker requests started/completed, data/inst
system.cpu.itb.walker.walkRequestOrigin_Completed::Data            0                       # Table walker requests started/completed, data/inst
system.cpu.itb.walker.walkRequestOrigin_Completed::Inst            0                       # Table walker requests started/completed, data/inst
system.cpu.itb.walker.walkRequestOrigin_Completed::total            0                       # Table walker requests started/completed, data/inst
system.cpu.itb.walker.walkRequestOrigin::total            0                       # Table walker requests started/completed, data/inst
system.cpu.itb.inst_hits                            0                       # ITB inst hits
system.cpu.itb.inst_misses                          0                       # ITB inst misses
system.cpu.itb.read_hits                            0                       # DTB read hits
system.cpu.itb.read_misses                          0                       # DTB read misses
system.cpu.itb.write_hits                           0                       # DTB write hits
system.cpu.itb.write_misses                         0                       # DTB write misses
system.cpu.itb.flush_tlb                            0                       # Number of times complete TLB was flushed
system.cpu.itb.flush_tlb_mva                        0                       # Number of times TLB was flushed by MVA
system.cpu.itb.flush_tlb_mva_asid                   0                       # Number of times TLB was flushed by MVA & ASID
system.cpu.itb.flush_tlb_asid                       0                       # Number of times TLB was flushed by ASID
system.cpu.itb.flush_entries                        0                       # Number of entries that have been flushed from TLB
system.cpu.itb.align_faults                         0                       # Number of TLB faults due to alignment restrictions
system.cpu.itb.prefetch_faults                      0                       # Number of TLB faults due to prefetch
system.cpu.itb.domain_faults                        0                       # Number of TLB faults due to domain restrictions
system.cpu.itb.perms_faults                         0                       # Number of TLB faults due to permissions restrictions
system.cpu.itb.read_accesses                        0                       # DTB read accesses
system.cpu.itb.write_accesses                       0                       # DTB write accesses
system.cpu.itb.inst_accesses                        0                       # ITB inst accesses
system.cpu.itb.hits                                 0                       # DTB hits
system.cpu.itb.misses                               0                       # DTB misses
system.cpu.itb.accesses                             0                       # DTB accesses
system.cpu.workload.num_syscalls                  412                       # Number of system calls
system.cpu.pwrStateResidencyTicks::ON    500654649500                       # Cumulative time (in ticks) in various power states
system.cpu.numCycles                       1001309299                       # number of cpu cycles simulated
system.cpu.numWorkItemsStarted                      0                       # number of work items this cpu started
system.cpu.numWorkItemsCompleted                    0                       # number of work items this cpu completed
system.cpu.committedInsts                   329235205                       # Number of instructions committed
system.cpu.committedOps                     331285316                       # Number of ops (including micro ops) committed
system.cpu.num_int_alu_accesses             321376348                       # Number of integer alu accesses
system.cpu.num_fp_alu_accesses                     16                       # Number of float alu accesses
system.cpu.num_func_calls                      311625                       # number of times a function call or return occured
system.cpu.num_conditional_control_insts      9859829                       # number of instructions that are conditional controls
system.cpu.num_int_insts                    321376348                       # number of integer instructions
system.cpu.num_fp_insts                            16                       # number of float instructions
system.cpu.num_int_register_reads           595425619                       # number of times the integer registers were read
system.cpu.num_int_register_writes          264455207                       # number of times the integer registers were written
system.cpu.num_fp_register_reads                   16                       # number of times the floating registers were read
system.cpu.num_fp_register_writes                   0                       # number of times the floating registers were written
system.cpu.num_cc_register_reads           1366923732                       # number of times the CC registers were read
system.cpu.num_cc_register_writes            29526948                       # number of times the CC registers were written
system.cpu.num_mem_refs                     171516495                       # number of memory refs
system.cpu.num_load_insts                   124201206                       # Number of load instructions
system.cpu.num_store_insts                   47315289                       # Number of store instructions
system.cpu.num_idle_cycles                   0.002000                       # Number of idle cycles
system.cpu.num_busy_cycles               1001309298.998000                       # Number of busy cycles
system.cpu.not_idle_fraction                 1.000000                       # Percentage of non-idle cycles
system.cpu.idle_fraction                     0.000000                       # Percentage of idle cycles
system.cpu.Branches                          10578340                       # Number of branches fetched
system.cpu.op_class::No_OpClass                     0      0.00%      0.00% # Class of executed instruction
system.cpu.op_class::IntAlu                 160075409     48.27%     48.27% # Class of executed instruction
system.cpu.op_class::IntMult                      803      0.00%     48.27% # Class of executed instruction
system.cpu.op_class::IntDiv                         0      0.00%     48.27% # Class of executed instruction
system.cpu.op_class::FloatAdd                       0      0.00%     48.27% # Class of executed instruction
system.cpu.op_class::FloatCmp                       0      0.00%     48.27% # Class of executed instruction
system.cpu.op_class::FloatCvt                       0      0.00%     48.27% # Class of executed instruction
system.cpu.op_class::FloatMult                      0      0.00%     48.27% # Class of executed instruction
system.cpu.op_class::FloatMultAcc                   0      0.00%     48.27% # Class of executed instruction
system.cpu.op_class::FloatDiv                       0      0.00%     48.27% # Class of executed instruction
system.cpu.op_class::FloatMisc                      0      0.00%     48.27% # Class of executed instruction
system.cpu.op_class::FloatSqrt                      0      0.00%     48.27% # Class of executed instruction
system.cpu.op_class::SimdAdd                        0      0.00%     48.27% # Class of executed instruction
system.cpu.op_class::SimdAddAcc                     0      0.00%     48.27% # Class of executed instruction
system.cpu.op_class::SimdAlu                        0      0.00%     48.27% # Class of executed instruction
system.cpu.op_class::SimdCmp                        0      0.00%     48.27% # Class of executed instruction
system.cpu.op_class::SimdCvt                        0      0.00%     48.27% # Class of executed instruction
system.cpu.op_class::SimdMisc                       0      0.00%     48.27% # Class of executed instruction
system.cpu.op_class::SimdMult                       0      0.00%     48.27% # Class of executed instruction
system.cpu.op_class::SimdMultAcc                    0      0.00%     48.27% # Class of executed instruction
system.cpu.op_class::SimdShift                      0      0.00%     48.27% # Class of executed instruction
system.cpu.op_class::SimdShiftAcc                   0      0.00%     48.27% # Class of executed instruction
system.cpu.op_class::SimdSqrt                       0      0.00%     48.27% # Class of executed instruction
system.cpu.op_class::SimdFloatAdd                   0      0.00%     48.27% # Class of executed instruction
system.cpu.op_class::SimdFloatAlu                   0      0.00%     48.27% # Class of executed instruction
system.cpu.op_class::SimdFloatCmp                   0      0.00%     48.27% # Class of executed instruction
system.cpu.op_class::SimdFloatCvt                   0      0.00%     48.27% # Class of executed instruction
system.cpu.op_class::SimdFloatDiv                   0      0.00%     48.27% # Class of executed instruction
system.cpu.op_class::SimdFloatMisc                  0      0.00%     48.27% # Class of executed instruction
system.cpu.op_class::SimdFloatMult                  0      0.00%     48.27% # Class of executed instruction
system.cpu.op_class::SimdFloatMultAcc               0      0.00%     48.27% # Class of executed instruction
system.cpu.op_class::SimdFloatSqrt                  0      0.00%     48.27% # Class of executed instruction
system.cpu.op_class::MemRead                124201206     37.46%     85.73% # Class of executed instruction
system.cpu.op_class::MemWrite                47315273     14.27%    100.00% # Class of executed instruction
system.cpu.op_class::FloatMemRead                   0      0.00%    100.00% # Class of executed instruction
system.cpu.op_class::FloatMemWrite                 16      0.00%    100.00% # Class of executed instruction
system.cpu.op_class::IprAccess                      0      0.00%    100.00% # Class of executed instruction
system.cpu.op_class::InstPrefetch                   0      0.00%    100.00% # Class of executed instruction
system.cpu.op_class::total                  331592707                       # Class of executed instruction
system.cpu.dcache.tags.pwrStateResidencyTicks::UNDEFINED 500654649500                       # Cumulative time (in ticks) in various power states
system.cpu.dcache.tags.replacements                 6                       # number of replacements
system.cpu.dcache.tags.tagsinuse           274.848386                       # Cycle average of tags in use
system.cpu.dcache.tags.total_refs           171260738                       # Total number of references to valid blocks.
system.cpu.dcache.tags.sampled_refs               327                       # Sample count of references to valid blocks.
system.cpu.dcache.tags.avg_refs          523733.143731                       # Average number of references to valid blocks.
system.cpu.dcache.tags.warmup_cycle                 0                       # Cycle when the warmup percentage was hit.
system.cpu.dcache.tags.occ_blocks::cpu.data   274.848386                       # Average occupied blocks per requestor
system.cpu.dcache.tags.occ_percent::cpu.data     0.268407                       # Average percentage of cache occupancy
system.cpu.dcache.tags.occ_percent::total     0.268407                       # Average percentage of cache occupancy
system.cpu.dcache.tags.occ_task_id_blocks::1024          321                       # Occupied blocks per task id
system.cpu.dcache.tags.age_task_id_blocks_1024::0           22                       # Occupied blocks per task id
system.cpu.dcache.tags.age_task_id_blocks_1024::1           25                       # Occupied blocks per task id
system.cpu.dcache.tags.age_task_id_blocks_1024::2            2                       # Occupied blocks per task id
system.cpu.dcache.tags.age_task_id_blocks_1024::4          272                       # Occupied blocks per task id
system.cpu.dcache.tags.occ_task_id_percent::1024     0.313477                       # Percentage of cache occupancy per task id
system.cpu.dcache.tags.tag_accesses         342522463                       # Number of tag accesses
system.cpu.dcache.tags.data_accesses        342522463                       # Number of data accesses
system.cpu.dcache.pwrStateResidencyTicks::UNDEFINED 500654649500                       # Cumulative time (in ticks) in various power states
system.cpu.dcache.ReadReq_hits::cpu.data    123945925                       # number of ReadReq hits
system.cpu.dcache.ReadReq_hits::total       123945925                       # number of ReadReq hits
system.cpu.dcache.WriteReq_hits::cpu.data     47160919                       # number of WriteReq hits
system.cpu.dcache.WriteReq_hits::total       47160919                       # number of WriteReq hits
system.cpu.dcache.SoftPFReq_hits::cpu.data       152235                       # number of SoftPFReq hits
system.cpu.dcache.SoftPFReq_hits::total        152235                       # number of SoftPFReq hits
system.cpu.dcache.LoadLockedReq_hits::cpu.data          829                       # number of LoadLockedReq hits
system.cpu.dcache.LoadLockedReq_hits::total          829                       # number of LoadLockedReq hits
system.cpu.dcache.StoreCondReq_hits::cpu.data          830                       # number of StoreCondReq hits
system.cpu.dcache.StoreCondReq_hits::total          830                       # number of StoreCondReq hits
system.cpu.dcache.demand_hits::cpu.data     171106844                       # number of demand (read+write) hits
system.cpu.dcache.demand_hits::total        171106844                       # number of demand (read+write) hits
system.cpu.dcache.overall_hits::cpu.data    171259079                       # number of overall hits
system.cpu.dcache.overall_hits::total       171259079                       # number of overall hits
system.cpu.dcache.ReadReq_misses::cpu.data          263                       # number of ReadReq misses
system.cpu.dcache.ReadReq_misses::total           263                       # number of ReadReq misses
system.cpu.dcache.WriteReq_misses::cpu.data           60                       # number of WriteReq misses
system.cpu.dcache.WriteReq_misses::total           60                       # number of WriteReq misses
system.cpu.dcache.SoftPFReq_misses::cpu.data            6                       # number of SoftPFReq misses
system.cpu.dcache.SoftPFReq_misses::total            6                       # number of SoftPFReq misses
system.cpu.dcache.LoadLockedReq_misses::cpu.data            1                       # number of LoadLockedReq misses
system.cpu.dcache.LoadLockedReq_misses::total            1                       # number of LoadLockedReq misses
system.cpu.dcache.demand_misses::cpu.data          323                       # number of demand (read+write) misses
system.cpu.dcache.demand_misses::total            323                       # number of demand (read+write) misses
system.cpu.dcache.overall_misses::cpu.data          329                       # number of overall misses
system.cpu.dcache.overall_misses::total           329                       # number of overall misses
system.cpu.dcache.ReadReq_miss_latency::cpu.data     36591500                       # number of ReadReq miss cycles
system.cpu.dcache.ReadReq_miss_latency::total     36591500                       # number of ReadReq miss cycles
system.cpu.dcache.WriteReq_miss_latency::cpu.data      5156000                       # number of WriteReq miss cycles
system.cpu.dcache.WriteReq_miss_latency::total      5156000                       # number of WriteReq miss cycles
system.cpu.dcache.LoadLockedReq_miss_latency::cpu.data        78000                       # number of LoadLockedReq miss cycles
system.cpu.dcache.LoadLockedReq_miss_latency::total        78000                       # number of LoadLockedReq miss cycles
system.cpu.dcache.demand_miss_latency::cpu.data     41747500                       # number of demand (read+write) miss cycles
system.cpu.dcache.demand_miss_latency::total     41747500                       # number of demand (read+write) miss cycles
system.cpu.dcache.overall_miss_latency::cpu.data     41747500                       # number of overall miss cycles
system.cpu.dcache.overall_miss_latency::total     41747500                       # number of overall miss cycles
system.cpu.dcache.ReadReq_accesses::cpu.data    123946188                       # number of ReadReq accesses(hits+misses)
system.cpu.dcache.ReadReq_accesses::total    123946188                       # number of ReadReq accesses(hits+misses)
system.cpu.dcache.WriteReq_accesses::cpu.data     47160979                       # number of WriteReq accesses(hits+misses)
system.cpu.dcache.WriteReq_accesses::total     47160979                       # number of WriteReq accesses(hits+misses)
system.cpu.dcache.SoftPFReq_accesses::cpu.data       152241                       # number of SoftPFReq accesses(hits+misses)
system.cpu.dcache.SoftPFReq_accesses::total       152241                       # number of SoftPFReq accesses(hits+misses)
system.cpu.dcache.LoadLockedReq_accesses::cpu.data          830                       # number of LoadLockedReq accesses(hits+misses)
system.cpu.dcache.LoadLockedReq_accesses::total          830                       # number of LoadLockedReq accesses(hits+misses)
system.cpu.dcache.StoreCondReq_accesses::cpu.data          830                       # number of StoreCondReq accesses(hits+misses)
system.cpu.dcache.StoreCondReq_accesses::total          830                       # number of StoreCondReq accesses(hits+misses)
system.cpu.dcache.demand_accesses::cpu.data    171107167                       # number of demand (read+write) accesses
system.cpu.dcache.demand_accesses::total    171107167                       # number of demand (read+write) accesses
system.cpu.dcache.overall_accesses::cpu.data    171259408                       # number of overall (read+write) accesses
system.cpu.dcache.overall_accesses::total    171259408                       # number of overall (read+write) accesses
system.cpu.dcache.ReadReq_miss_rate::cpu.data     0.000002                       # miss rate for ReadReq accesses
system.cpu.dcache.ReadReq_miss_rate::total     0.000002                       # miss rate for ReadReq accesses
system.cpu.dcache.WriteReq_miss_rate::cpu.data     0.000001                       # miss rate for WriteReq accesses
system.cpu.dcache.WriteReq_miss_rate::total     0.000001                       # miss rate for WriteReq accesses
system.cpu.dcache.SoftPFReq_miss_rate::cpu.data     0.000039                       # miss rate for SoftPFReq accesses
system.cpu.dcache.SoftPFReq_miss_rate::total     0.000039                       # miss rate for SoftPFReq accesses
system.cpu.dcache.LoadLockedReq_miss_rate::cpu.data     0.001205                       # miss rate for LoadLockedReq accesses
system.cpu.dcache.LoadLockedReq_miss_rate::total     0.001205                       # miss rate for LoadLockedReq accesses
system.cpu.dcache.demand_miss_rate::cpu.data     0.000002                       # miss rate for demand accesses
system.cpu.dcache.demand_miss_rate::total     0.000002                       # miss rate for demand accesses
system.cpu.dcache.overall_miss_rate::cpu.data     0.000002                       # miss rate for overall accesses
system.cpu.dcache.overall_miss_rate::total     0.000002                       # miss rate for overall accesses
system.cpu.dcache.ReadReq_avg_miss_latency::cpu.data 139131.178707                       # average ReadReq miss latency
system.cpu.dcache.ReadReq_avg_miss_latency::total 139131.178707                       # average ReadReq miss latency
system.cpu.dcache.WriteReq_avg_miss_latency::cpu.data 85933.333333                       # average WriteReq miss latency
system.cpu.dcache.WriteReq_avg_miss_latency::total 85933.333333                       # average WriteReq miss latency
system.cpu.dcache.LoadLockedReq_avg_miss_latency::cpu.data        78000                       # average LoadLockedReq miss latency
system.cpu.dcache.LoadLockedReq_avg_miss_latency::total        78000                       # average LoadLockedReq miss latency
system.cpu.dcache.demand_avg_miss_latency::cpu.data 129249.226006                       # average overall miss latency
system.cpu.dcache.demand_avg_miss_latency::total 129249.226006                       # average overall miss latency
system.cpu.dcache.overall_avg_miss_latency::cpu.data 126892.097264                       # average overall miss latency
system.cpu.dcache.overall_avg_miss_latency::total 126892.097264                       # average overall miss latency
system.cpu.dcache.blocked_cycles::no_mshrs            0                       # number of cycles access was blocked
system.cpu.dcache.blocked_cycles::no_targets            0                       # number of cycles access was blocked
system.cpu.dcache.blocked::no_mshrs                 0                       # number of cycles access was blocked
system.cpu.dcache.blocked::no_targets               0                       # number of cycles access was blocked
system.cpu.dcache.avg_blocked_cycles::no_mshrs          nan                       # average number of cycles each access was blocked
system.cpu.dcache.avg_blocked_cycles::no_targets          nan                       # average number of cycles each access was blocked
system.cpu.dcache.writebacks::writebacks            3                       # number of writebacks
system.cpu.dcache.writebacks::total                 3                       # number of writebacks
system.cpu.dcache.ReadReq_mshr_hits::cpu.data            1                       # number of ReadReq MSHR hits
system.cpu.dcache.ReadReq_mshr_hits::total            1                       # number of ReadReq MSHR hits
system.cpu.dcache.demand_mshr_hits::cpu.data            1                       # number of demand (read+write) MSHR hits
system.cpu.dcache.demand_mshr_hits::total            1                       # number of demand (read+write) MSHR hits
system.cpu.dcache.overall_mshr_hits::cpu.data            1                       # number of overall MSHR hits
system.cpu.dcache.overall_mshr_hits::total            1                       # number of overall MSHR hits
system.cpu.dcache.ReadReq_mshr_misses::cpu.data          262                       # number of ReadReq MSHR misses
system.cpu.dcache.ReadReq_mshr_misses::total          262                       # number of ReadReq MSHR misses
system.cpu.dcache.WriteReq_mshr_misses::cpu.data           60                       # number of WriteReq MSHR misses
system.cpu.dcache.WriteReq_mshr_misses::total           60                       # number of WriteReq MSHR misses
system.cpu.dcache.SoftPFReq_mshr_misses::cpu.data            4                       # number of SoftPFReq MSHR misses
system.cpu.dcache.SoftPFReq_mshr_misses::total            4                       # number of SoftPFReq MSHR misses
system.cpu.dcache.LoadLockedReq_mshr_misses::cpu.data            1                       # number of LoadLockedReq MSHR misses
system.cpu.dcache.LoadLockedReq_mshr_misses::total            1                       # number of LoadLockedReq MSHR misses
system.cpu.dcache.demand_mshr_misses::cpu.data          322                       # number of demand (read+write) MSHR misses
system.cpu.dcache.demand_mshr_misses::total          322                       # number of demand (read+write) MSHR misses
system.cpu.dcache.overall_mshr_misses::cpu.data          326                       # number of overall MSHR misses
system.cpu.dcache.overall_mshr_misses::total          326                       # number of overall MSHR misses
system.cpu.dcache.ReadReq_mshr_miss_latency::cpu.data     36267500                       # number of ReadReq MSHR miss cycles
system.cpu.dcache.ReadReq_mshr_miss_latency::total     36267500                       # number of ReadReq MSHR miss cycles
system.cpu.dcache.WriteReq_mshr_miss_latency::cpu.data      5096000                       # number of WriteReq MSHR miss cycles
system.cpu.dcache.WriteReq_mshr_miss_latency::total      5096000                       # number of WriteReq MSHR miss cycles
system.cpu.dcache.SoftPFReq_mshr_miss_latency::cpu.data       323000                       # number of SoftPFReq MSHR miss cycles
system.cpu.dcache.SoftPFReq_mshr_miss_latency::total       323000                       # number of SoftPFReq MSHR miss cycles
system.cpu.dcache.LoadLockedReq_mshr_miss_latency::cpu.data        77000                       # number of LoadLockedReq MSHR miss cycles
system.cpu.dcache.LoadLockedReq_mshr_miss_latency::total        77000                       # number of LoadLockedReq MSHR miss cycles
system.cpu.dcache.demand_mshr_miss_latency::cpu.data     41363500                       # number of demand (read+write) MSHR miss cycles
system.cpu.dcache.demand_mshr_miss_latency::total     41363500                       # number of demand (read+write) MSHR miss cycles
system.cpu.dcache.overall_mshr_miss_latency::cpu.data     41686500                       # number of overall MSHR miss cycles
system.cpu.dcache.overall_mshr_miss_latency::total     41686500                       # number of overall MSHR miss cycles
system.cpu.dcache.ReadReq_mshr_miss_rate::cpu.data     0.000002                       # mshr miss rate for ReadReq accesses
system.cpu.dcache.ReadReq_mshr_miss_rate::total     0.000002                       # mshr miss rate for ReadReq accesses
system.cpu.dcache.WriteReq_mshr_miss_rate::cpu.data     0.000001                       # mshr miss rate for WriteReq accesses
system.cpu.dcache.WriteReq_mshr_miss_rate::total     0.000001                       # mshr miss rate for WriteReq accesses
system.cpu.dcache.SoftPFReq_mshr_miss_rate::cpu.data     0.000026                       # mshr miss rate for SoftPFReq accesses
system.cpu.dcache.SoftPFReq_mshr_miss_rate::total     0.000026                       # mshr miss rate for SoftPFReq accesses
system.cpu.dcache.LoadLockedReq_mshr_miss_rate::cpu.data     0.001205                       # mshr miss rate for LoadLockedReq accesses
system.cpu.dcache.LoadLockedReq_mshr_miss_rate::total     0.001205                       # mshr miss rate for LoadLockedReq accesses
system.cpu.dcache.demand_mshr_miss_rate::cpu.data     0.000002                       # mshr miss rate for demand accesses
system.cpu.dcache.demand_mshr_miss_rate::total     0.000002                       # mshr miss rate for demand accesses
system.cpu.dcache.overall_mshr_miss_rate::cpu.data     0.000002                       # mshr miss rate for overall accesses
system.cpu.dcache.overall_mshr_miss_rate::total     0.000002                       # mshr miss rate for overall accesses
system.cpu.dcache.ReadReq_avg_mshr_miss_latency::cpu.data 138425.572519                       # average ReadReq mshr miss latency
system.cpu.dcache.ReadReq_avg_mshr_miss_latency::total 138425.572519                       # average ReadReq mshr miss latency
system.cpu.dcache.WriteReq_avg_mshr_miss_latency::cpu.data 84933.333333                       # average WriteReq mshr miss latency
system.cpu.dcache.WriteReq_avg_mshr_miss_latency::total 84933.333333                       # average WriteReq mshr miss latency
system.cpu.dcache.SoftPFReq_avg_mshr_miss_latency::cpu.data        80750                       # average SoftPFReq mshr miss latency
system.cpu.dcache.SoftPFReq_avg_mshr_miss_latency::total        80750                       # average SoftPFReq mshr miss latency
system.cpu.dcache.LoadLockedReq_avg_mshr_miss_latency::cpu.data        77000                       # average LoadLockedReq mshr miss latency
system.cpu.dcache.LoadLockedReq_avg_mshr_miss_latency::total        77000                       # average LoadLockedReq mshr miss latency
system.cpu.dcache.demand_avg_mshr_miss_latency::cpu.data 128458.074534                       # average overall mshr miss latency
system.cpu.dcache.demand_avg_mshr_miss_latency::total 128458.074534                       # average overall mshr miss latency
system.cpu.dcache.overall_avg_mshr_miss_latency::cpu.data 127872.699387                       # average overall mshr miss latency
system.cpu.dcache.overall_avg_mshr_miss_latency::total 127872.699387                       # average overall mshr miss latency
system.cpu.icache.tags.pwrStateResidencyTicks::UNDEFINED 500654649500                       # Cumulative time (in ticks) in various power states
system.cpu.icache.tags.replacements               114                       # number of replacements
system.cpu.icache.tags.tagsinuse           251.007073                       # Cycle average of tags in use
system.cpu.icache.tags.total_refs           329337491                       # Total number of references to valid blocks.
system.cpu.icache.tags.sampled_refs               493                       # Sample count of references to valid blocks.
system.cpu.icache.tags.avg_refs          668027.365112                       # Average number of references to valid blocks.
system.cpu.icache.tags.warmup_cycle                 0                       # Cycle when the warmup percentage was hit.
system.cpu.icache.tags.occ_blocks::cpu.inst   251.007073                       # Average occupied blocks per requestor
system.cpu.icache.tags.occ_percent::cpu.inst     0.490248                       # Average percentage of cache occupancy
system.cpu.icache.tags.occ_percent::total     0.490248                       # Average percentage of cache occupancy
system.cpu.icache.tags.occ_task_id_blocks::1024          379                       # Occupied blocks per task id
system.cpu.icache.tags.age_task_id_blocks_1024::0           90                       # Occupied blocks per task id
system.cpu.icache.tags.age_task_id_blocks_1024::1           87                       # Occupied blocks per task id
system.cpu.icache.tags.age_task_id_blocks_1024::2           15                       # Occupied blocks per task id
system.cpu.icache.tags.age_task_id_blocks_1024::4          187                       # Occupied blocks per task id
system.cpu.icache.tags.occ_task_id_percent::1024     0.740234                       # Percentage of cache occupancy per task id
system.cpu.icache.tags.tag_accesses         658676461                       # Number of tag accesses
system.cpu.icache.tags.data_accesses        658676461                       # Number of data accesses
system.cpu.icache.pwrStateResidencyTicks::UNDEFINED 500654649500                       # Cumulative time (in ticks) in various power states
system.cpu.icache.ReadReq_hits::cpu.inst    329337491                       # number of ReadReq hits
system.cpu.icache.ReadReq_hits::total       329337491                       # number of ReadReq hits
system.cpu.icache.demand_hits::cpu.inst     329337491                       # number of demand (read+write) hits
system.cpu.icache.demand_hits::total        329337491                       # number of demand (read+write) hits
system.cpu.icache.overall_hits::cpu.inst    329337491                       # number of overall hits
system.cpu.icache.overall_hits::total       329337491                       # number of overall hits
system.cpu.icache.ReadReq_misses::cpu.inst          493                       # number of ReadReq misses
system.cpu.icache.ReadReq_misses::total           493                       # number of ReadReq misses
system.cpu.icache.demand_misses::cpu.inst          493                       # number of demand (read+write) misses
system.cpu.icache.demand_misses::total            493                       # number of demand (read+write) misses
system.cpu.icache.overall_misses::cpu.inst          493                       # number of overall misses
system.cpu.icache.overall_misses::total           493                       # number of overall misses
system.cpu.icache.ReadReq_miss_latency::cpu.inst     40424500                       # number of ReadReq miss cycles
system.cpu.icache.ReadReq_miss_latency::total     40424500                       # number of ReadReq miss cycles
system.cpu.icache.demand_miss_latency::cpu.inst     40424500                       # number of demand (read+write) miss cycles
system.cpu.icache.demand_miss_latency::total     40424500                       # number of demand (read+write) miss cycles
system.cpu.icache.overall_miss_latency::cpu.inst     40424500                       # number of overall miss cycles
system.cpu.icache.overall_miss_latency::total     40424500                       # number of overall miss cycles
system.cpu.icache.ReadReq_accesses::cpu.inst    329337984                       # number of ReadReq accesses(hits+misses)
system.cpu.icache.ReadReq_accesses::total    329337984                       # number of ReadReq accesses(hits+misses)
system.cpu.icache.demand_accesses::cpu.inst    329337984                       # number of demand (read+write) accesses
system.cpu.icache.demand_accesses::total    329337984                       # number of demand (read+write) accesses
system.cpu.icache.overall_accesses::cpu.inst    329337984                       # number of overall (read+write) accesses
system.cpu.icache.overall_accesses::total    329337984                       # number of overall (read+write) accesses
system.cpu.icache.ReadReq_miss_rate::cpu.inst     0.000001                       # miss rate for ReadReq accesses
system.cpu.icache.ReadReq_miss_rate::total     0.000001                       # miss rate for ReadReq accesses
system.cpu.icache.demand_miss_rate::cpu.inst     0.000001                       # miss rate for demand accesses
system.cpu.icache.demand_miss_rate::total     0.000001                       # miss rate for demand accesses
system.cpu.icache.overall_miss_rate::cpu.inst     0.000001                       # miss rate for overall accesses
system.cpu.icache.overall_miss_rate::total     0.000001                       # miss rate for overall accesses
system.cpu.icache.ReadReq_avg_miss_latency::cpu.inst 81996.957404                       # average ReadReq miss latency
system.cpu.icache.ReadReq_avg_miss_latency::total 81996.957404                       # average ReadReq miss latency
system.cpu.icache.demand_avg_miss_latency::cpu.inst 81996.957404                       # average overall miss latency
system.cpu.icache.demand_avg_miss_latency::total 81996.957404                       # average overall miss latency
system.cpu.icache.overall_avg_miss_latency::cpu.inst 81996.957404                       # average overall miss latency
system.cpu.icache.overall_avg_miss_latency::total 81996.957404                       # average overall miss latency
system.cpu.icache.blocked_cycles::no_mshrs            0                       # number of cycles access was blocked
system.cpu.icache.blocked_cycles::no_targets            0                       # number of cycles access was blocked
system.cpu.icache.blocked::no_mshrs                 0                       # number of cycles access was blocked
system.cpu.icache.blocked::no_targets               0                       # number of cycles access was blocked
system.cpu.icache.avg_blocked_cycles::no_mshrs          nan                       # average number of cycles each access was blocked
system.cpu.icache.avg_blocked_cycles::no_targets          nan                       # average number of cycles each access was blocked
system.cpu.icache.writebacks::writebacks          114                       # number of writebacks
system.cpu.icache.writebacks::total               114                       # number of writebacks
system.cpu.icache.ReadReq_mshr_misses::cpu.inst          493                       # number of ReadReq MSHR misses
system.cpu.icache.ReadReq_mshr_misses::total          493                       # number of ReadReq MSHR misses
system.cpu.icache.demand_mshr_misses::cpu.inst          493                       # number of demand (read+write) MSHR misses
system.cpu.icache.demand_mshr_misses::total          493                       # number of demand (read+write) MSHR misses
system.cpu.icache.overall_mshr_misses::cpu.inst          493                       # number of overall MSHR misses
system.cpu.icache.overall_mshr_misses::total          493                       # number of overall MSHR misses
system.cpu.icache.ReadReq_mshr_miss_latency::cpu.inst     39931500                       # number of ReadReq MSHR miss cycles
system.cpu.icache.ReadReq_mshr_miss_latency::total     39931500                       # number of ReadReq MSHR miss cycles
system.cpu.icache.demand_mshr_miss_latency::cpu.inst     39931500                       # number of demand (read+write) MSHR miss cycles
system.cpu.icache.demand_mshr_miss_latency::total     39931500                       # number of demand (read+write) MSHR miss cycles
system.cpu.icache.overall_mshr_miss_latency::cpu.inst     39931500                       # number of overall MSHR miss cycles
system.cpu.icache.overall_mshr_miss_latency::total     39931500                       # number of overall MSHR miss cycles
[...]
system.l2.overall_miss_latency::cpu.data     40995000                       # number of overall miss cycles
system.l2.overall_miss_latency::total        79704000                       # number of overall miss cycles
system.l2.WritebackDirty_accesses::writebacks            3                       # number of WritebackDirty accesses(hits+misses)
system.l2.WritebackDirty_accesses::total            3                       # number of WritebackDirty accesses(hits+misses)
system.l2.WritebackClean_accesses::writebacks          101                       # number of WritebackClean accesses(hits+misses)
system.l2.WritebackClean_accesses::total          101                       # number of WritebackClean accesses(hits+misses)
system.l2.ReadExReq_accesses::cpu.data             60                       # number of ReadExReq accesses(hits+misses)
system.l2.ReadExReq_accesses::total                60                       # number of ReadExReq accesses(hits+misses)
system.l2.ReadCleanReq_accesses::cpu.inst          493                       # number of ReadCleanReq accesses(hits+misses)
system.l2.ReadCleanReq_accesses::total            493                       # number of ReadCleanReq accesses(hits+misses)
system.l2.ReadSharedReq_accesses::cpu.data          267                       # number of ReadSharedReq accesses(hits+misses)
system.l2.ReadSharedReq_accesses::total           267                       # number of ReadSharedReq accesses(hits+misses)
system.l2.demand_accesses::cpu.inst               493                       # number of demand (read+write) accesses
system.l2.demand_accesses::cpu.data               327                       # number of demand (read+write) accesses
system.l2.demand_accesses::total                  820                       # number of demand (read+write) accesses
system.l2.overall_accesses::cpu.inst              493                       # number of overall (read+write) accesses
system.l2.overall_accesses::cpu.data              327                       # number of overall (read+write) accesses
system.l2.overall_accesses::total                 820                       # number of overall (read+write) accesses
system.l2.ReadExReq_miss_rate::cpu.data             1                       # miss rate for ReadExReq accesses
system.l2.ReadExReq_miss_rate::total                1                       # miss rate for ReadExReq accesses
system.l2.ReadCleanReq_miss_rate::cpu.inst     0.912779                       # miss rate for ReadCleanReq accesses
system.l2.ReadCleanReq_miss_rate::total      0.912779                       # miss rate for ReadCleanReq accesses
system.l2.ReadSharedReq_miss_rate::cpu.data     0.910112                       # miss rate for ReadSharedReq accesses
system.l2.ReadSharedReq_miss_rate::total     0.910112                       # miss rate for ReadSharedReq accesses
system.l2.demand_miss_rate::cpu.inst         0.912779                       # miss rate for demand accesses
system.l2.demand_miss_rate::cpu.data         0.926606                       # miss rate for demand accesses
system.l2.demand_miss_rate::total            0.918293                       # miss rate for demand accesses
system.l2.overall_miss_rate::cpu.inst        0.912779                       # miss rate for overall accesses
system.l2.overall_miss_rate::cpu.data        0.926606                       # miss rate for overall accesses
system.l2.overall_miss_rate::total           0.918293                       # miss rate for overall accesses
system.l2.ReadExReq_avg_miss_latency::cpu.data        83425                       # average ReadExReq miss latency
system.l2.ReadExReq_avg_miss_latency::total        83425                       # average ReadExReq miss latency
system.l2.ReadCleanReq_avg_miss_latency::cpu.inst        86020                       # average ReadCleanReq miss latency
system.l2.ReadCleanReq_avg_miss_latency::total        86020                       # average ReadCleanReq miss latency
system.l2.ReadSharedReq_avg_miss_latency::cpu.data 148104.938272                       # average ReadSharedReq miss latency
system.l2.ReadSharedReq_avg_miss_latency::total 148104.938272                       # average ReadSharedReq miss latency
system.l2.demand_avg_miss_latency::cpu.inst        86020                       # average overall miss latency
system.l2.demand_avg_miss_latency::cpu.data 135297.029703                       # average overall miss latency
system.l2.demand_avg_miss_latency::total 105848.605578                       # average overall miss latency
system.l2.overall_avg_miss_latency::cpu.inst        86020                       # average overall miss latency
system.l2.overall_avg_miss_latency::cpu.data 135297.029703                       # average overall miss latency
system.l2.overall_avg_miss_latency::total 105848.605578                       # average overall miss latency
system.l2.blocked_cycles::no_mshrs                  0                       # number of cycles access was blocked
system.l2.blocked_cycles::no_targets                0                       # number of cycles access was blocked
system.l2.blocked::no_mshrs                         0                       # number of cycles access was blocked
system.l2.blocked::no_targets                       0                       # number of cycles access was blocked
system.l2.avg_blocked_cycles::no_mshrs            nan                       # average number of cycles each access was blocked
system.l2.avg_blocked_cycles::no_targets          nan                       # average number of cycles each access was blocked
system.l2.ReadExReq_mshr_misses::cpu.data           60                       # number of ReadExReq MSHR misses
system.l2.ReadExReq_mshr_misses::total             60                       # number of ReadExReq MSHR misses
system.l2.ReadCleanReq_mshr_misses::cpu.inst          450                       # number of ReadCleanReq MSHR misses
system.l2.ReadCleanReq_mshr_misses::total          450                       # number of ReadCleanReq MSHR misses
system.l2.ReadSharedReq_mshr_misses::cpu.data          243                       # number of ReadSharedReq MSHR misses
system.l2.ReadSharedReq_mshr_misses::total          243                       # number of ReadSharedReq MSHR misses
system.l2.demand_mshr_misses::cpu.inst            450                       # number of demand (read+write) MSHR misses
system.l2.demand_mshr_misses::cpu.data            303                       # number of demand (read+write) MSHR misses
system.l2.demand_mshr_misses::total               753                       # number of demand (read+write) MSHR misses
system.l2.overall_mshr_misses::cpu.inst           450                       # number of overall MSHR misses
system.l2.overall_mshr_misses::cpu.data           303                       # number of overall MSHR misses
system.l2.overall_mshr_misses::total              753                       # number of overall MSHR misses
system.l2.ReadExReq_mshr_miss_latency::cpu.data      4405500                       # number of ReadExReq MSHR miss cycles
system.l2.ReadExReq_mshr_miss_latency::total      4405500                       # number of ReadExReq MSHR miss cycles
system.l2.ReadCleanReq_mshr_miss_latency::cpu.inst     34209000                       # number of ReadCleanReq MSHR miss cycles
system.l2.ReadCleanReq_mshr_miss_latency::total     34209000                       # number of ReadCleanReq MSHR miss cycles
system.l2.ReadSharedReq_mshr_miss_latency::cpu.data     33559500                       # number of ReadSharedReq MSHR miss cycles
system.l2.ReadSharedReq_mshr_miss_latency::total     33559500                       # number of ReadSharedReq MSHR miss cycles
system.l2.demand_mshr_miss_latency::cpu.inst     34209000                       # number of demand (read+write) MSHR miss cycles
system.l2.demand_mshr_miss_latency::cpu.data     37965000                       # number of demand (read+write) MSHR miss cycles
system.l2.demand_mshr_miss_latency::total     72174000                       # number of demand (read+write) MSHR miss cycles
system.l2.overall_mshr_miss_latency::cpu.inst     34209000                       # number of overall MSHR miss cycles
system.l2.overall_mshr_miss_latency::cpu.data     37965000                       # number of overall MSHR miss cycles
system.l2.overall_mshr_miss_latency::total     72174000                       # number of overall MSHR miss cycles
system.l2.ReadExReq_mshr_miss_rate::cpu.data            1                       # mshr miss rate for ReadExReq accesses
system.l2.ReadExReq_mshr_miss_rate::total            1                       # mshr miss rate for ReadExReq accesses
system.l2.ReadCleanReq_mshr_miss_rate::cpu.inst     0.912779                       # mshr miss rate for ReadCleanReq accesses
system.l2.ReadCleanReq_mshr_miss_rate::total     0.912779                       # mshr miss rate for ReadCleanReq accesses
system.l2.ReadSharedReq_mshr_miss_rate::cpu.data     0.910112                       # mshr miss rate for ReadSharedReq accesses
system.l2.ReadSharedReq_mshr_miss_rate::total     0.910112                       # mshr miss rate for ReadSharedReq accesses
system.l2.demand_mshr_miss_rate::cpu.inst     0.912779                       # mshr miss rate for demand accesses
system.l2.demand_mshr_miss_rate::cpu.data     0.926606                       # mshr miss rate for demand accesses
system.l2.demand_mshr_miss_rate::total       0.918293                       # mshr miss rate for demand accesses
system.l2.overall_mshr_miss_rate::cpu.inst     0.912779                       # mshr miss rate for overall accesses
system.l2.overall_mshr_miss_rate::cpu.data     0.926606                       # mshr miss rate for overall accesses
system.l2.overall_mshr_miss_rate::total      0.918293                       # mshr miss rate for overall accesses
system.l2.ReadExReq_avg_mshr_miss_latency::cpu.data        73425                       # average ReadExReq mshr miss latency
system.l2.ReadExReq_avg_mshr_miss_latency::total        73425                       # average ReadExReq mshr miss latency
system.l2.ReadCleanReq_avg_mshr_miss_latency::cpu.inst        76020                       # average ReadCleanReq mshr miss latency
system.l2.ReadCleanReq_avg_mshr_miss_latency::total        76020                       # average ReadCleanReq mshr miss latency
system.l2.ReadSharedReq_avg_mshr_miss_latency::cpu.data 138104.938272                       # average ReadSharedReq mshr miss latency
system.l2.ReadSharedReq_avg_mshr_miss_latency::total 138104.938272                       # average ReadSharedReq mshr miss latency
system.l2.demand_avg_mshr_miss_latency::cpu.inst        76020                       # average overall mshr miss latency
system.l2.demand_avg_mshr_miss_latency::cpu.data 125297.029703                       # average overall mshr miss latency
system.l2.demand_avg_mshr_miss_latency::total 95848.605578                       # average overall mshr miss latency
system.l2.overall_avg_mshr_miss_latency::cpu.inst        76020                       # average overall mshr miss latency
system.l2.overall_avg_mshr_miss_latency::cpu.data 125297.029703                       # average overall mshr miss latency
system.l2.overall_avg_mshr_miss_latency::total 95848.605578                       # average overall mshr miss latency
system.membus.snoop_filter.tot_requests           753                       # Total number of requests made to the snoop filter.
system.membus.snoop_filter.hit_single_requests            0                       # Number of requests hitting in the snoop filter with a single holder of the requested data.
system.membus.snoop_filter.hit_multi_requests            0                       # Number of requests hitting in the snoop filter with multiple (>1) holders of the requested data.
system.membus.snoop_filter.tot_snoops               0                       # Total number of snoops made to the snoop filter.
system.membus.snoop_filter.hit_single_snoops            0                       # Number of snoops hitting in the snoop filter with a single holder of the requested data.
system.membus.snoop_filter.hit_multi_snoops            0                       # Number of snoops hitting in the snoop filter with multiple (>1) holders of the requested data.
system.membus.pwrStateResidencyTicks::UNDEFINED 500654649500                       # Cumulative time (in ticks) in various power states
system.membus.trans_dist::ReadResp                693                       # Transaction distribution
system.membus.trans_dist::ReadExReq                60                       # Transaction distribution
system.membus.trans_dist::ReadExResp               60                       # Transaction distribution
system.membus.trans_dist::ReadSharedReq           693                       # Transaction distribution
system.membus.pkt_count_system.l2.mem_side::system.mem_ctrls.port         1506                       # Packet count per connected master and slave (bytes)
system.membus.pkt_count::total                   1506                       # Packet count per connected master and slave (bytes)
system.membus.pkt_size_system.l2.mem_side::system.mem_ctrls.port        48192                       # Cumulative packet size per connected master and slave (bytes)
system.membus.pkt_size::total                   48192                       # Cumulative packet size per connected master and slave (bytes)
system.membus.snoops                                0                       # Total snoops (count)
system.membus.snoopTraffic                          0                       # Total snoop traffic (bytes)
system.membus.snoop_fanout::samples               753                       # Request fanout histogram
system.membus.snoop_fanout::mean                    0                       # Request fanout histogram
system.membus.snoop_fanout::stdev                   0                       # Request fanout histogram
system.membus.snoop_fanout::underflows              0      0.00%      0.00% # Request fanout histogram
system.membus.snoop_fanout::0                     753    100.00%    100.00% # Request fanout histogram
system.membus.snoop_fanout::1                       0      0.00%    100.00% # Request fanout histogram
system.membus.snoop_fanout::overflows               0      0.00%    100.00% # Request fanout histogram
system.membus.snoop_fanout::min_value               0                       # Request fanout histogram
system.membus.snoop_fanout::max_value               0                       # Request fanout histogram
system.membus.snoop_fanout::total                 753                       # Request fanout histogram
system.membus.reqLayer0.occupancy              764500                       # Layer occupancy (ticks)
system.membus.reqLayer0.utilization               0.0                       # Layer utilization (%)
system.membus.respLayer1.occupancy            4022500                       # Layer occupancy (ticks)
system.membus.respLayer1.utilization              0.0                       # Layer utilization (%)
system.tol2bus.snoop_filter.tot_requests          940                       # Total number of requests made to the snoop filter.
system.tol2bus.snoop_filter.hit_single_requests          158                       # Number of requests hitting in the snoop filter with a single holder of the requested data.
system.tol2bus.snoop_filter.hit_multi_requests           14                       # Number of requests hitting in the snoop filter with multiple (>1) holders of the requested data.
system.tol2bus.snoop_filter.tot_snoops              0                       # Total number of snoops made to the snoop filter.
system.tol2bus.snoop_filter.hit_single_snoops            0                       # Number of snoops hitting in the snoop filter with a single holder of the requested data.
system.tol2bus.snoop_filter.hit_multi_snoops            0                       # Number of snoops hitting in the snoop filter with multiple (>1) holders of the requested data.
system.tol2bus.pwrStateResidencyTicks::UNDEFINED 500654649500                       # Cumulative time (in ticks) in various power states
system.tol2bus.trans_dist::ReadResp               760                       # Transaction distribution
system.tol2bus.trans_dist::WritebackDirty            3                       # Transaction distribution
system.tol2bus.trans_dist::WritebackClean          114                       # Transaction distribution
system.tol2bus.trans_dist::CleanEvict               3                       # Transaction distribution
system.tol2bus.trans_dist::ReadExReq               60                       # Transaction distribution
system.tol2bus.trans_dist::ReadExResp              60                       # Transaction distribution
system.tol2bus.trans_dist::ReadCleanReq           493                       # Transaction distribution
system.tol2bus.trans_dist::ReadSharedReq          267                       # Transaction distribution
system.tol2bus.pkt_count_system.cpu.icache.mem_side::system.l2.cpu_side         1100                       # Packet count per connected master and slave (bytes)
system.tol2bus.pkt_count_system.cpu.dcache.mem_side::system.l2.cpu_side          660                       # Packet count per connected master and slave (bytes)
system.tol2bus.pkt_count::total                  1760                       # Packet count per connected master and slave (bytes)
system.tol2bus.pkt_size_system.cpu.icache.mem_side::system.l2.cpu_side        38848                       # Cumulative packet size per connected master and slave (bytes)
system.tol2bus.pkt_size_system.cpu.dcache.mem_side::system.l2.cpu_side        21120                       # Cumulative packet size per connected master and slave (bytes)
system.tol2bus.pkt_size::total                  59968                       # Cumulative packet size per connected master and slave (bytes)
system.tol2bus.snoops                               0                       # Total snoops (count)
system.tol2bus.snoopTraffic                         0                       # Total snoop traffic (bytes)
system.tol2bus.snoop_fanout::samples              820                       # Request fanout histogram
system.tol2bus.snoop_fanout::mean            0.063415                       # Request fanout histogram
system.tol2bus.snoop_fanout::stdev           0.243856                       # Request fanout histogram
system.tol2bus.snoop_fanout::underflows             0      0.00%      0.00% # Request fanout histogram
system.tol2bus.snoop_fanout::0                    768     93.66%     93.66% # Request fanout histogram
system.tol2bus.snoop_fanout::1                     52      6.34%    100.00% # Request fanout histogram
system.tol2bus.snoop_fanout::2                      0      0.00%    100.00% # Request fanout histogram
system.tol2bus.snoop_fanout::overflows              0      0.00%    100.00% # Request fanout histogram
system.tol2bus.snoop_fanout::min_value              0                       # Request fanout histogram
system.tol2bus.snoop_fanout::max_value              1                       # Request fanout histogram
system.tol2bus.snoop_fanout::total                820                       # Request fanout histogram
system.tol2bus.reqLayer0.occupancy             587000                       # Layer occupancy (ticks)
system.tol2bus.reqLayer0.utilization              0.0                       # Layer utilization (%)
system.tol2bus.respLayer0.occupancy            739500                       # Layer occupancy (ticks)
system.tol2bus.respLayer0.utilization             0.0                       # Layer utilization (%)
system.tol2bus.respLayer1.occupancy            490500                       # Layer occupancy (ticks)
system.tol2bus.respLayer1.utilization             0.0                       # Layer utilization (%)

---------- End Simulation Statistics   ----------
