
---------- Begin Simulation Statistics ----------
sim_seconds                                  0.515486                       # Number of seconds simulated
sim_ticks                                515486391500                       # Number of ticks simulated
final_tick                               515486391500                       # Number of ticks from beginning of simulation (restored from checkpoints and never reset)
sim_freq                                 1000000000000                       # Frequency of simulated ticks
host_inst_rate                                1651115                       # Simulator instruction rate (inst/s)
host_op_rate                                  2238447                       # Simulator op (including micro ops) rate (op/s)
host_tick_rate                             3168895412                       # Simulator tick rate (ticks/s)
host_mem_usage                                 697904                       # Number of bytes of host memory used
host_seconds                                   162.67                       # Real time elapsed on the host
sim_insts                                   268587998                       # Number of instructions simulated
sim_ops                                     364129638                       # Number of ops (including micro ops) simulated
system.voltage_domain.voltage                       1                       # Voltage in Volts
system.clk_domain.clock                          1000                       # Clock period in ticks
system.mem_ctrls.pwrStateResidencyTicks::UNDEFINED 515486391500                       # Cumulative time (in ticks) in various power states
system.mem_ctrls.bytes_read::cpu.inst           34880                       # Number of bytes read from this memory
system.mem_ctrls.bytes_read::cpu.data           20928                       # Number of bytes read from this memory
system.mem_ctrls.bytes_read::total              55808                       # Number of bytes read from this memory
system.mem_ctrls.bytes_inst_read::cpu.inst        34880                       # Number of instructions bytes read from this memory
system.mem_ctrls.bytes_inst_read::total         34880                       # Number of instructions bytes read from this memory
system.mem_ctrls.num_reads::cpu.inst              545                       # Number of read requests responded to by this memory
system.mem_ctrls.num_reads::cpu.data              327                       # Number of read requests responded to by this memory
system.mem_ctrls.num_reads::total                 872                       # Number of read requests responded to by this memory
system.mem_ctrls.bw_read::cpu.inst              67664                       # Total read bandwidth from this memory (bytes/s)
system.mem_ctrls.bw_read::cpu.data              40599                       # Total read bandwidth from this memory (bytes/s)
system.mem_ctrls.bw_read::total                108263                       # Total read bandwidth from this memory (bytes/s)
system.mem_ctrls.bw_inst_read::cpu.inst         67664                       # Instruction read bandwidth from this memory (bytes/s)
system.mem_ctrls.bw_inst_read::total            67664                       # Instruction read bandwidth from this memory (bytes/s)
system.mem_ctrls.bw_total::cpu.inst             67664                       # Total bandwidth to/from this memory (bytes/s)
system.mem_ctrls.bw_total::cpu.data             40599                       # Total bandwidth to/from this memory (bytes/s)
system.mem_ctrls.bw_total::total               108263                       # Total bandwidth to/from this memory (bytes/s)
system.mem_ctrls.readReqs                         872                       # Number of read requests accepted
system.mem_ctrls.writeReqs                          0                       # Number of write requests accepted
system.mem_ctrls.readBursts                       872                       # Number of DRAM read bursts, including those serviced by the write queue
system.mem_ctrls.writeBursts                        0                       # Number of DRAM write bursts, including those merged in the write queue
system.mem_ctrls.bytesReadDRAM                  55808                       # Total number of bytes read from DRAM
system.mem_ctrls.bytesReadWrQ                       0                       # Total number of bytes read from write queue
system.mem_ctrls.bytesWritten                       0                       # Total number of bytes written to DRAM
system.mem_ctrls.bytesReadSys                   55808                       # Total read bytes from the system interface side
system.mem_ctrls.bytesWrittenSys                    0                       # Total written bytes from the system interface side
system.mem_ctrls.servicedByWrQ                      0                       # Number of DRAM read bursts serviced by the write queue
system.mem_ctrls.mergedWrBursts                     0                       # Number of DRAM write bursts merged with an existing one
system.mem_ctrls.neitherReadNorWriteReqs            0                       # Number of requests that are neither read nor write
system.mem_ctrls.perBankRdBursts::0               117                       # Per bank write bursts
system.mem_ctrls.perBankRdBursts::1                 0                       # Per bank write bursts
system.mem_ctrls.perBankRdBursts::2                44                       # Per bank write bursts
system.mem_ctrls.perBankRdBursts::3                33                       # Per bank write bursts
system.mem_ctrls.perBankRdBursts::4                27                       # Per bank write bursts
system.mem_ctrls.perBankRdBursts::5                39                       # Per bank write bursts
system.mem_ctrls.perBankRdBursts::6                84                       # Per bank write bursts
system.mem_ctrls.perBankRdBursts::7                21                       # Per bank write bursts
system.mem_ctrls.perBankRdBursts::8                50                       # Per bank write bursts
system.mem_ctrls.perBankRdBursts::9                78                       # Per bank write bursts
system.mem_ctrls.perBankRdBursts::10              101                       # Per bank write bursts
system.mem_ctrls.perBankRdBursts::11               82                       # Per bank write bursts
system.mem_ctrls.perBankRdBursts::12               13                       # Per bank write bursts
system.mem_ctrls.perBankRdBursts::13              131                       # Per bank write bursts
system.mem_ctrls.perBankRdBursts::14               34                       # Per bank write bursts
system.mem_ctrls.perBankRdBursts::15               18                       # Per bank write bursts
system.mem_ctrls.perBankWrBursts::0                 0                       # Per bank write bursts
system.mem_ctrls.perBankWrBursts::1                 0                       # Per bank write bursts
system.mem_ctrls.perBankWrBursts::2                 0                       # Per bank write bursts
system.mem_ctrls.perBankWrBursts::3                 0                       # Per bank write bursts
system.mem_ctrls.perBankWrBursts::4                 0                       # Per bank write bursts
system.mem_ctrls.perBankWrBursts::5                 0                       # Per bank write bursts
system.mem_ctrls.perBankWrBursts::6                 0                       # Per bank write bursts
system.mem_ctrls.perBankWrBursts::7                 0                       # Per bank write bursts
system.mem_ctrls.perBankWrBursts::8                 0                       # Per bank write bursts
system.mem_ctrls.perBankWrBursts::9                 0                       # Per bank write bursts
system.mem_ctrls.perBankWrBursts::10                0                       # Per bank write bursts
system.mem_ctrls.perBankWrBursts::11                0                       # Per bank write bursts
system.mem_ctrls.perBankWrBursts::12                0                       # Per bank write bursts
system.mem_ctrls.perBankWrBursts::13                0                       # Per bank write bursts
system.mem_ctrls.perBankWrBursts::14                0                       # Per bank write bursts
system.mem_ctrls.perBankWrBursts::15                0                       # Per bank write bursts
system.mem_ctrls.numRdRetry                         0                       # Number of times read queue was full causing retry
system.mem_ctrls.numWrRetry                         0                       # Number of times write queue was full causing retry
system.mem_ctrls.totGap                  515486309500                       # Total gap between requests
system.mem_ctrls.readPktSize::0                     0                       # Read request sizes (log2)
system.mem_ctrls.readPktSize::1                     0                       # Read request sizes (log2)
system.mem_ctrls.readPktSize::2                     0                       # Read request sizes (log2)
system.mem_ctrls.readPktSize::3                     0                       # Read request sizes (log2)
system.mem_ctrls.readPktSize::4                     0                       # Read request sizes (log2)
system.mem_ctrls.readPktSize::5                     0                       # Read request sizes (log2)
system.mem_ctrls.readPktSize::6                   872                       # Read request sizes (log2)
system.mem_ctrls.writePktSize::0                    0                       # Write request sizes (log2)
system.mem_ctrls.writePktSize::1                    0                       # Write request sizes (log2)
system.mem_ctrls.writePktSize::2                    0                       # Write request sizes (log2)
system.mem_ctrls.writePktSize::3                    0                       # Write request sizes (log2)
system.mem_ctrls.writePktSize::4                    0                       # Write request sizes (log2)
system.mem_ctrls.writePktSize::5                    0                       # Write request sizes (log2)
system.mem_ctrls.writePktSize::6                    0                       # Write request sizes (log2)
system.mem_ctrls.rdQLenPdf::0                     871                       # What read queue length does an incoming req see
system.mem_ctrls.rdQLenPdf::1                       1                       # What read queue length does an incoming req see
system.mem_ctrls.rdQLenPdf::2                       0                       # What read queue length does an incoming req see
system.mem_ctrls.rdQLenPdf::3                       0                       # What read queue length does an incoming req see
system.mem_ctrls.rdQLenPdf::4                       0                       # What read queue length does an incoming req see
system.mem_ctrls.rdQLenPdf::5                       0                       # What read queue length does an incoming req see
system.mem_ctrls.rdQLenPdf::6                       0                       # What read queue length does an incoming req see
system.mem_ctrls.rdQLenPdf::7                       0                       # What read queue length does an incoming req see
system.mem_ctrls.rdQLenPdf::8                       0                       # What read queue length does an incoming req see
system.mem_ctrls.rdQLenPdf::9                       0                       # What read queue length does an incoming req see
system.mem_ctrls.rdQLenPdf::10                      0                       # What read queue length does an incoming req see
system.mem_ctrls.rdQLenPdf::11                      0                       # What read queue length does an incoming req see
system.mem_ctrls.rdQLenPdf::12                      0                       # What read queue length does an incoming req see
system.mem_ctrls.rdQLenPdf::13                      0                       # What read queue length does an incoming req see
system.mem_ctrls.rdQLenPdf::14                      0                       # What read queue length does an incoming req see
system.mem_ctrls.rdQLenPdf::15                      0                       # What read queue length does an incoming req see
system.mem_ctrls.rdQLenPdf::16                      0                       # What read queue length does an incoming req see
system.mem_ctrls.rdQLenPdf::17                      0                       # What read queue length does an incoming req see
system.mem_ctrls.rdQLenPdf::18                      0                       # What read queue length does an incoming req see
system.mem_ctrls.rdQLenPdf::19                      0                       # What read queue length does an incoming req see
system.mem_ctrls.rdQLenPdf::20                      0                       # What read queue length does an incoming req see
system.mem_ctrls.rdQLenPdf::21                      0                       # What read queue length does an incoming req see
system.mem_ctrls.rdQLenPdf::22                      0                       # What read queue length does an incoming req see
system.mem_ctrls.rdQLenPdf::23                      0                       # What read queue length does an incoming req see
system.mem_ctrls.rdQLenPdf::24                      0                       # What read queue length does an incoming req see
system.mem_ctrls.rdQLenPdf::25                      0                       # What read queue length does an incoming req see
system.mem_ctrls.rdQLenPdf::26                      0                       # What read queue length does an incoming req see
system.mem_ctrls.rdQLenPdf::27                      0                       # What read queue length does an incoming req see
system.mem_ctrls.rdQLenPdf::28                      0                       # What read queue length does an incoming req see
system.mem_ctrls.rdQLenPdf::29                      0                       # What read queue length does an incoming req see
system.mem_ctrls.rdQLenPdf::30                      0                       # What read queue length does an incoming req see
system.mem_ctrls.rdQLenPdf::31                      0                       # What read queue length does an incoming req see
system.mem_ctrls.wrQLenPdf::0                       0                       # What write queue length does an incoming req see
system.mem_ctrls.wrQLenPdf::1                       0                       # What write queue length does an incoming req see
system.mem_ctrls.wrQLenPdf::2                       0                       # What write queue length does an incoming req see
system.mem_ctrls.wrQLenPdf::3                       0                       # What write queue length does an incoming req see
system.mem_ctrls.wrQLenPdf::4                       0                       # What write queue length does an incoming req see
system.mem_ctrls.wrQLenPdf::5                       0                       # What write queue length does an incoming req see
system.mem_ctrls.wrQLenPdf::6                       0                       # What write queue length does an incoming req see
system.mem_ctrls.wrQLenPdf::7                       0                       # What write queue length does an incoming req see
system.mem_ctrls.wrQLenPdf::8                       0                       # What write queue length does an incoming req see
system.mem_ctrls.wrQLenPdf::9                       0                       # What write queue length does an incoming req see
system.mem_ctrls.wrQLenPdf::10                      0                       # What write queue length does an incoming req see
system.mem_ctrls.wrQLenPdf::11                      0                       # What write queue length does an incoming req see
system.mem_ctrls.wrQLenPdf::12                      0                       # What write queue length does an incoming req see
system.mem_ctrls.wrQLenPdf::13                      0                       # What write queue length does an incoming req see
system.mem_ctrls.wrQLenPdf::14                      0                       # What write queue length does an incoming req see
system.mem_ctrls.wrQLenPdf::15                      0                       # What write queue length does an incoming req see
system.mem_ctrls.wrQLenPdf::16                      0                       # What write queue length does an incoming req see
system.mem_ctrls.wrQLenPdf::17                      0                       # What write queue length does an incoming req see
system.mem_ctrls.wrQLenPdf::18                      0                       # What write queue length does an incoming req see
system.mem_ctrls.wrQLenPdf::19                      0                       # What write queue length does an incoming req see
system.mem_ctrls.wrQLenPdf::20                      0                       # What write queue length does an incoming req see
system.mem_ctrls.wrQLenPdf::21                      0                       # What write queue length does an incoming req see
system.mem_ctrls.wrQLenPdf::22                      0                       # What write queue length does an incoming req see
system.mem_ctrls.wrQLenPdf::23                      0                       # What write queue length does an incoming req see
system.mem_ctrls.wrQLenPdf::24                      0                       # What write queue length does an incoming req see
system.mem_ctrls.wrQLenPdf::25                      0                       # What write queue length does an incoming req see
system.mem_ctrls.wrQLenPdf::26                      0                       # What write queue length does an incoming req see
system.mem_ctrls.wrQLenPdf::27                      0                       # What write queue length does an incoming req see
system.mem_ctrls.wrQLenPdf::28                      0                       # What write queue length does an incoming req see
system.mem_ctrls.wrQLenPdf::29                      0                       # What write queue length does an incoming req see
system.mem_ctrls.wrQLenPdf::30                      0                       # What write queue length does an incoming req see
system.mem_ctrls.wrQLenPdf::31                      0                       # What write queue length does an incoming req see
system.mem_ctrls.wrQLenPdf::32                      0                       # What write queue length does an incoming req see
system.mem_ctrls.wrQLenPdf::33                      0                       # What write queue length does an incoming req see
system.mem_ctrls.wrQLenPdf::34                      0                       # What write queue length does an incoming req see
system.mem_ctrls.wrQLenPdf::35                      0                       # What write queue length does an incoming req see
system.mem_ctrls.wrQLenPdf::36                      0                       # What write queue length does an incoming req see
system.mem_ctrls.wrQLenPdf::37                      0                       # What write queue length does an incoming req see
system.mem_ctrls.wrQLenPdf::38                      0                       # What write queue length does an incoming req see
system.mem_ctrls.wrQLenPdf::39                      0                       # What write queue length does an incoming req see
system.mem_ctrls.wrQLenPdf::40                      0                       # What write queue length does an incoming req see
system.mem_ctrls.wrQLenPdf::41                      0                       # What write queue length does an incoming req see
system.mem_ctrls.wrQLenPdf::42                      0                       # What write queue length does an incoming req see
system.mem_ctrls.wrQLenPdf::43                      0                       # What write queue length does an incoming req see
system.mem_ctrls.wrQLenPdf::44                      0                       # What write queue length does an incoming req see
system.mem_ctrls.wrQLenPdf::45                      0                       # What write queue length does an incoming req see
system.mem_ctrls.wrQLenPdf::46                      0                       # What write queue length does an incoming req see
system.mem_ctrls.wrQLenPdf::47                      0                       # What write queue length does an incoming req see
system.mem_ctrls.wrQLenPdf::48                      0                       # What write queue length does an incoming req see
system.mem_ctrls.wrQLenPdf::49                      0                       # What write queue length does an incoming req see
system.mem_ctrls.wrQLenPdf::50                      0                       # What write queue length does an incoming req see
system.mem_ctrls.wrQLenPdf::51                      0                       # What write queue length does an incoming req see
system.mem_ctrls.wrQLenPdf::52                      0                       # What write queue length does an incoming req see
system.mem_ctrls.wrQLenPdf::53                      0                       # What write queue length does an incoming req see
system.mem_ctrls.wrQLenPdf::54                      0                       # What write queue length does an incoming req see
system.mem_ctrls.wrQLenPdf::55                      0                       # What write queue length does an incoming req see
system.mem_ctrls.wrQLenPdf::56                      0                       # What write queue length does an incoming req see
system.mem_ctrls.wrQLenPdf::57                      0                       # What write queue length does an incoming req see
system.mem_ctrls.wrQLenPdf::58                      0                       # What write queue length does an incoming req see
system.mem_ctrls.wrQLenPdf::59                      0                       # What write queue length does an incoming req see
system.mem_ctrls.wrQLenPdf::60                      0                       # What write queue length does an incoming req see
system.mem_ctrls.wrQLenPdf::61                      0                       # What write queue length does an incoming req see
system.mem_ctrls.wrQLenPdf::62                      0                       # What write queue length does an incoming req see
system.mem_ctrls.wrQLenPdf::63                      0                       # What write queue length does an incoming req see
system.mem_ctrls.bytesPerActivate::samples          288                       # Bytes accessed per row activation
system.mem_ctrls.bytesPerActivate::mean    184.666667                       # Bytes accessed per row activation
system.mem_ctrls.bytesPerActivate::gmean   114.245332                       # Bytes accessed per row activation
system.mem_ctrls.bytesPerActivate::stdev   237.707987                       # Bytes accessed per row activation
system.mem_ctrls.bytesPerActivate::0-127          176     61.11%     61.11% # Bytes accessed per row activation
system.mem_ctrls.bytesPerActivate::128-255           51     17.71%     78.82% # Bytes accessed per row activation
system.mem_ctrls.bytesPerActivate::256-383           19      6.60%     85.42% # Bytes accessed per row activation
system.mem_ctrls.bytesPerActivate::384-511           10      3.47%     88.89% # Bytes accessed per row activation
system.mem_ctrls.bytesPerActivate::512-639            9      3.12%     92.01% # Bytes accessed per row activation
system.mem_ctrls.bytesPerActivate::640-767            6      2.08%     94.10% # Bytes accessed per row activation
system.mem_ctrls.bytesPerActivate::768-895            3      1.04%     95.14% # Bytes accessed per row activation
system.mem_ctrls.bytesPerActivate::896-1023            4      1.39%     96.53% # Bytes accessed per row activation
system.mem_ctrls.bytesPerActivate::1024-1151           10      3.47%    100.00% # Bytes accessed per row activation
system.mem_ctrls.bytesPerActivate::total          288                       # Bytes accessed per row activation
system.mem_ctrls.totQLat                     28819250                       # Total ticks spent queuing
system.mem_ctrls.totMemAccLat                45169250                       # Total ticks spent from burst creation until serviced by the DRAM
system.mem_ctrls.totBusLat                    4360000                       # Total ticks spent in databus transfers
system.mem_ctrls.avgQLat                     33049.60                       # Average queueing delay per DRAM burst
system.mem_ctrls.avgBusLat                    5000.00                       # Average bus latency per DRAM burst
system.mem_ctrls.avgMemAccLat                51799.60                       # Average memory access latency per DRAM burst
system.mem_ctrls.avgRdBW                         0.11                       # Average DRAM read bandwidth in MiByte/s
system.mem_ctrls.avgWrBW                         0.00                       # Average achieved write bandwidth in MiByte/s
system.mem_ctrls.avgRdBWSys                      0.11                       # Average system read bandwidth in MiByte/s
system.mem_ctrls.avgWrBWSys                      0.00                       # Average system write bandwidth in MiByte/s
system.mem_ctrls.peakBW                      12800.00                       # Theoretical peak bandwidth in MiByte/s
system.mem_ctrls.busUtil                         0.00                       # Data bus utilization in percentage
system.mem_ctrls.busUtilRead                     0.00                       # Data bus utilization in percentage for reads
system.mem_ctrls.busUtilWrite                    0.00                       # Data bus utilization in percentage for writes
system.mem_ctrls.avgRdQLen                       1.00                       # Average read queue length when enqueuing
system.mem_ctrls.avgWrQLen                       0.00                       # Average write queue length when enqueuing
system.mem_ctrls.readRowHits                      577                       # Number of row buffer hits during reads
system.mem_ctrls.writeRowHits                       0                       # Number of row buffer hits during writes
system.mem_ctrls.readRowHitRate                 66.17                       # Row buffer hit rate for reads
system.mem_ctrls.writeRowHitRate                  nan                       # Row buffer hit rate for writes
system.mem_ctrls.avgGap                  591154024.66                       # Average gap between requests
system.mem_ctrls.pageHitRate                    66.17                       # Row buffer hit rate, read and write combined
system.mem_ctrls_0.actEnergy                   485520                       # Energy for activate commands per rank (pJ)
system.mem_ctrls_0.preEnergy                   235290                       # Energy for precharge commands per rank (pJ)
system.mem_ctrls_0.readEnergy                 2606100                       # Energy for read commands per rank (pJ)
system.mem_ctrls_0.writeEnergy                      0                       # Energy for write commands per rank (pJ)
system.mem_ctrls_0.refreshEnergy         11063520.000000                       # Energy for refresh commands per rank (pJ)
system.mem_ctrls_0.actBackEnergy              7360410                       # Energy for active background per rank (pJ)
system.mem_ctrls_0.preBackEnergy               420960                       # Energy for precharge background per rank (pJ)
system.mem_ctrls_0.actPowerDownEnergy        41722290                       # Energy for active power-down per rank (pJ)
system.mem_ctrls_0.prePowerDownEnergy         9402720                       # Energy for precharge power-down per rank (pJ)
system.mem_ctrls_0.selfRefreshEnergy     123685865880                       # Energy for self refresh per rank (pJ)
system.mem_ctrls_0.totalEnergy           123759162690                       # Total energy per rank (pJ)
system.mem_ctrls_0.averagePower            240.082308                       # Core power per rank (mW)
system.mem_ctrls_0.totalIdleTime         515468773500                       # Total Idle time Per DRAM Rank
system.mem_ctrls_0.memoryStateTime::IDLE       629500                       # Time in different power states
system.mem_ctrls_0.memoryStateTime::REF       4692000                       # Time in different power states
system.mem_ctrls_0.memoryStateTime::SREF 515353173000                       # Time in different power states
system.mem_ctrls_0.memoryStateTime::PRE_PDN     24484750                       # Time in different power states
system.mem_ctrls_0.memoryStateTime::ACT      11912750                       # Time in different power states
system.mem_ctrls_0.memoryStateTime::ACT_PDN     91499500                       # Time in different power states
system.mem_ctrls_1.actEnergy                  1620780                       # Energy for activate commands per rank (pJ)
system.mem_ctrls_1.preEnergy                   857670                       # Energy for precharge commands per rank (pJ)
system.mem_ctrls_1.readEnergy                 3619980                       # Energy for read commands per rank (pJ)
system.mem_ctrls_1.writeEnergy                      0                       # Energy for write commands per rank (pJ)
system.mem_ctrls_1.refreshEnergy         112479120.000000                       # Energy for refresh commands per rank (pJ)
system.mem_ctrls_1.actBackEnergy             28446420                       # Energy for active background per rank (pJ)
system.mem_ctrls_1.preBackEnergy              4983840                       # Energy for precharge background per rank (pJ)
system.mem_ctrls_1.actPowerDownEnergy       227376420                       # Energy for active power-down per rank (pJ)
system.mem_ctrls_1.prePowerDownEnergy       247449120                       # Energy for precharge power-down per rank (pJ)
system.mem_ctrls_1.selfRefreshEnergy     123440334960                       # Energy for self refresh per rank (pJ)
system.mem_ctrls_1.totalEnergy           124067168310                       # Total energy per rank (pJ)
system.mem_ctrls_1.averagePower            240.679813                       # Core power per rank (mW)
system.mem_ctrls_1.totalIdleTime         515410989750                       # Total Idle time Per DRAM Rank
system.mem_ctrls_1.memoryStateTime::IDLE      8514000                       # Time in different power states
system.mem_ctrls_1.memoryStateTime::REF      47754000                       # Time in different power states
system.mem_ctrls_1.memoryStateTime::SREF 514267999250                       # Time in different power states
system.mem_ctrls_1.memoryStateTime::PRE_PDN    644395500                       # Time in different power states
system.mem_ctrls_1.memoryStateTime::ACT      19088000                       # Time in different power states
system.mem_ctrls_1.memoryStateTime::ACT_PDN    498640750                       # Time in different power states
system.pwrStateResidencyTicks::UNDEFINED 515486391500                       # Cumulative time (in ticks) in various power states
system.cpu_voltage_domain.voltage                   1                       # Voltage in Volts
system.cpu_clk_domain.clock                       500                       # Clock period in ticks
system.cpu.dtb.walker.pwrStateResidencyTicks::UNDEFINED 515486391500                       # Cumulative time (in ticks) in various power states
system.cpu.apic_clk_domain.clock                 8000                       # Clock period in ticks
system.cpu.interrupts.pwrStateResidencyTicks::UNDEFINED 515486391500                       # Cumulative time (in ticks) in various power states
system.cpu.itb.walker.pwrStateResidencyTicks::UNDEFINED 515486391500                       # Cumulative time (in ticks) in various power states
system.cpu.workload.num_syscalls                  412                       # Number of system calls
system.cpu.pwrStateResidencyTicks::ON    515486391500                       # Cumulative time (in ticks) in various power states
system.cpu.numCycles                       1030972783                       # number of cpu cycles simulated
system.cpu.numWorkItemsStarted                      0                       # number of work items this cpu started
system.cpu.numWorkItemsCompleted                    0                       # number of work items this cpu completed
system.cpu.committedInsts                   268587998                       # Number of instructions committed
system.cpu.committedOps                     364129638                       # Number of ops (including micro ops) committed
system.cpu.num_int_alu_accesses             364026647                       # Number of integer alu accesses
system.cpu.num_fp_alu_accesses                1624353                       # Number of float alu accesses
system.cpu.num_func_calls                      308829                       # number of times a function call or return occured
system.cpu.num_conditional_control_insts      9149709                       # number of instructions that are conditional controls
system.cpu.num_int_insts                    364026647                       # number of integer instructions
system.cpu.num_fp_insts                       1624353                       # number of float instructions
system.cpu.num_int_register_reads           833095301                       # number of times the integer registers were read
system.cpu.num_int_register_writes          310510899                       # number of times the integer registers were written
system.cpu.num_fp_register_reads               812687                       # number of times the floating registers were read
system.cpu.num_fp_register_writes              812221                       # number of times the floating registers were written
system.cpu.num_cc_register_reads             91076211                       # number of times the CC registers were read
system.cpu.num_cc_register_writes           183748142                       # number of times the CC registers were written
system.cpu.num_mem_refs                     163084617                       # number of memory refs
system.cpu.num_load_insts                   120189957                       # Number of load instructions
system.cpu.num_store_insts                   42894660                       # Number of store instructions
system.cpu.num_idle_cycles                   0.002000                       # Number of idle cycles
system.cpu.num_busy_cycles               1030972782.998000                       # Number of busy cycles
system.cpu.not_idle_fraction                 1.000000                       # Percentage of non-idle cycles
system.cpu.idle_fraction                     0.000000                       # Percentage of idle cycles
system.cpu.Branches                           9815183                       # Number of branches fetched
system.cpu.op_class::No_OpClass                   452      0.00%      0.00% # Class of executed instruction
system.cpu.op_class::IntAlu                 201041053     55.21%     55.21% # Class of executed instruction
system.cpu.op_class::IntMult                      402      0.00%     55.21% # Class of executed instruction
system.cpu.op_class::IntDiv                      2828      0.00%     55.21% # Class of executed instruction
system.cpu.op_class::FloatAdd                     286      0.00%     55.21% # Class of executed instruction
system.cpu.op_class::FloatCmp                       0      0.00%     55.21% # Class of executed instruction
system.cpu.op_class::FloatCvt                       0      0.00%     55.21% # Class of executed instruction
system.cpu.op_class::FloatMult                      0      0.00%     55.21% # Class of executed instruction
system.cpu.op_class::FloatMultAcc                   0      0.00%     55.21% # Class of executed instruction
system.cpu.op_class::FloatDiv                       0      0.00%     55.21% # Class of executed instruction
system.cpu.op_class::FloatMisc                      0      0.00%     55.21% # Class of executed instruction
system.cpu.op_class::FloatSqrt                      0      0.00%     55.21% # Class of executed instruction
system.cpu.op_class::SimdAdd                        0      0.00%     55.21% # Class of executed instruction
system.cpu.op_class::SimdAddAcc                     0      0.00%     55.21% # Class of executed instruction
system.cpu.op_class::SimdAlu                        0      0.00%     55.21% # Class of executed instruction
system.cpu.op_class::SimdCmp                        0      0.00%     55.21% # Class of executed instruction
system.cpu.op_class::SimdCvt                        0      0.00%     55.21% # Class of executed instruction
system.cpu.op_class::SimdMisc                       0      0.00%     55.21% # Class of executed instruction
system.cpu.op_class::SimdMult                       0      0.00%     55.21% # Class of executed instruction
system.cpu.op_class::SimdMultAcc                    0      0.00%     55.21% # Class of executed instruction
system.cpu.op_class::SimdShift                      0      0.00%     55.21% # Class of executed instruction
system.cpu.op_class::SimdShiftAcc                   0      0.00%     55.21% # Class of executed instruction
system.cpu.op_class::SimdSqrt                       0      0.00%     55.21% # Class of executed instruction
system.cpu.op_class::SimdFloatAdd                   0      0.00%     55.21% # Class of executed instruction
system.cpu.op_class::SimdFloatAlu                   0      0.00%     55.21% # Class of executed instruction
system.cpu.op_class::SimdFloatCmp                   0      0.00%     55.21% # Class of executed instruction
system.cpu.op_class::SimdFloatCvt                   0      0.00%     55.21% # Class of executed instruction
system.cpu.op_class::SimdFloatDiv                   0      0.00%     55.21% # Class of executed instruction
system.cpu.op_class::SimdFloatMisc                  0      0.00%     55.21% # Class of executed instruction
system.cpu.op_class::SimdFloatMult                  0      0.00%     55.21% # Class of executed instruction
system.cpu.op_class::SimdFloatMultAcc               0      0.00%     55.21% # Class of executed instruction
system.cpu.op_class::SimdFloatSqrt                  0      0.00%     55.21% # Class of executed instruction
system.cpu.op_class::MemRead                119377993     32.78%     88.00% # Class of executed instruction
system.cpu.op_class::MemWrite                42082584     11.56%     99.55% # Class of executed instruction
system.cpu.op_class::FloatMemRead              811964      0.22%     99.78% # Class of executed instruction
system.cpu.op_class::FloatMemWrite             812076      0.22%    100.00% # Class of executed instruction
system.cpu.op_class::IprAccess                      0      0.00%    100.00% # Class of executed instruction
system.cpu.op_class::InstPrefetch                   0      0.00%    100.00% # Class of executed instruction
system.cpu.op_class::total                  364129638                       # Class of executed instruction
system.cpu.dcache.tags.pwrStateResidencyTicks::UNDEFINED 515486391500                       # Cumulative time (in ticks) in various power states
system.cpu.dcache.tags.replacements             18082                       # number of replacements
system.cpu.dcache.tags.tagsinuse           127.989167                       # Cycle average of tags in use
system.cpu.dcache.tags.total_refs           163066417                       # Total number of references to valid blocks.
system.cpu.dcache.tags.sampled_refs             18210                       # Sample count of references to valid blocks.
system.cpu.dcache.tags.avg_refs           8954.773037                       # Average number of references to valid blocks.
system.cpu.dcache.tags.warmup_cycle         553659500                       # Cycle when the warmup percentage was hit.
system.cpu.dcache.tags.occ_blocks::cpu.data   127.989167                       # Average occupied blocks per requestor
system.cpu.dcache.tags.occ_percent::cpu.data     0.999915                       # Average percentage of cache occupancy
system.cpu.dcache.tags.occ_percent::total     0.999915                       # Average percentage of cache occupancy
system.cpu.dcache.tags.occ_task_id_blocks::1024          128                       # Occupied blocks per task id
system.cpu.dcache.tags.age_task_id_blocks_1024::0           28                       # Occupied blocks per task id
system.cpu.dcache.tags.age_task_id_blocks_1024::1           35                       # Occupied blocks per task id
system.cpu.dcache.tags.age_task_id_blocks_1024::2            6                       # Occupied blocks per task id
system.cpu.dcache.tags.age_task_id_blocks_1024::4           59                       # Occupied blocks per task id
system.cpu.dcache.tags.occ_task_id_percent::1024            1                       # Percentage of cache occupancy per task id
system.cpu.dcache.tags.tag_accesses         326187464                       # Number of tag accesses
system.cpu.dcache.tags.data_accesses        326187464                       # Number of data accesses
system.cpu.dcache.pwrStateResidencyTicks::UNDEFINED 515486391500                       # Cumulative time (in ticks) in various power states
system.cpu.dcache.ReadReq_hits::cpu.data    120171892                       # number of ReadReq hits
system.cpu.dcache.ReadReq_hits::total       120171892                       # number of ReadReq hits
system.cpu.dcache.WriteReq_hits::cpu.data     42894525                       # number of WriteReq hits
system.cpu.dcache.WriteReq_hits::total       42894525                       # number of WriteReq hits
system.cpu.dcache.demand_hits::cpu.data     163066417                       # number of demand (read+write) hits
system.cpu.dcache.demand_hits::total        163066417                       # number of demand (read+write) hits
system.cpu.dcache.overall_hits::cpu.data    163066417                       # number of overall hits
system.cpu.dcache.overall_hits::total       163066417                       # number of overall hits
system.cpu.dcache.ReadReq_misses::cpu.data        18073                       # number of ReadReq misses
system.cpu.dcache.ReadReq_misses::total         18073                       # number of ReadReq misses
system.cpu.dcache.WriteReq_misses::cpu.data          137                       # number of WriteReq misses
system.cpu.dcache.WriteReq_misses::total          137                       # number of WriteReq misses
system.cpu.dcache.demand_misses::cpu.data        18210                       # number of demand (read+write) misses
system.cpu.dcache.demand_misses::total          18210                       # number of demand (read+write) misses
system.cpu.dcache.overall_misses::cpu.data        18210                       # number of overall misses
system.cpu.dcache.overall_misses::total         18210                       # number of overall misses
system.cpu.dcache.ReadReq_miss_latency::cpu.data    266472500                       # number of ReadReq miss cycles
system.cpu.dcache.ReadReq_miss_latency::total    266472500                       # number of ReadReq miss cycles
system.cpu.dcache.WriteReq_miss_latency::cpu.data     10652000                       # number of WriteReq miss cycles
system.cpu.dcache.WriteReq_miss_latency::total     10652000                       # number of WriteReq miss cycles
system.cpu.dcache.demand_miss_latency::cpu.data    277124500                       # number of demand (read+write) miss cycles
system.cpu.dcache.demand_miss_latency::total    277124500                       # number of demand (read+write) miss cycles
system.cpu.dcache.overall_miss_latency::cpu.data    277124500                       # number of overall miss cycles
system.cpu.dcache.overall_miss_latency::total    277124500                       # number of overall miss cycles
system.cpu.dcache.ReadReq_accesses::cpu.data    120189965                       # number of ReadReq accesses(hits+misses)
system.cpu.dcache.ReadReq_accesses::total    120189965                       # number of ReadReq accesses(hits+misses)
system.cpu.dcache.WriteReq_accesses::cpu.data     42894662                       # number of WriteReq accesses(hits+misses)
system.cpu.dcache.WriteReq_accesses::total     42894662                       # number of WriteReq accesses(hits+misses)
system.cpu.dcache.demand_accesses::cpu.data    163084627                       # number of demand (read+write) accesses
system.cpu.dcache.demand_accesses::total    163084627                       # number of demand (read+write) accesses
system.cpu.dcache.overall_accesses::cpu.data    163084627                       # number of overall (read+write) accesses
system.cpu.dcache.overall_accesses::total    163084627                       # number of overall (read+write) accesses
system.cpu.dcache.ReadReq_miss_rate::cpu.data     0.000150                       # miss rate for ReadReq accesses
system.cpu.dcache.ReadReq_miss_rate::total     0.000150                       # miss rate for ReadReq accesses
system.cpu.dcache.WriteReq_miss_rate::cpu.data     0.000003                       # miss rate for WriteReq accesses
system.cpu.dcache.WriteReq_miss_rate::total     0.000003                       # miss rate for WriteReq accesses
system.cpu.dcache.demand_miss_rate::cpu.data     0.000112                       # miss rate for demand accesses
system.cpu.dcache.demand_miss_rate::total     0.000112                       # miss rate for demand accesses
system.cpu.dcache.overall_miss_rate::cpu.data     0.000112                       # miss rate for overall accesses
system.cpu.dcache.overall_miss_rate::total     0.000112                       # miss rate for overall accesses
system.cpu.dcache.ReadReq_avg_miss_latency::cpu.data 14744.231727                       # average ReadReq miss latency
system.cpu.dcache.ReadReq_avg_miss_latency::total 14744.231727                       # average ReadReq miss latency
system.cpu.dcache.WriteReq_avg_miss_latency::cpu.data 77751.824818                       # average WriteReq miss latency
system.cpu.dcache.WriteReq_avg_miss_latency::total 77751.824818                       # average WriteReq miss latency
system.cpu.dcache.demand_avg_miss_latency::cpu.data 15218.259198                       # average overall miss latency
system.cpu.dcache.demand_avg_miss_latency::total 15218.259198                       # average overall miss latency
system.cpu.dcache.overall_avg_miss_latency::cpu.data 15218.259198                       # average overall miss latency
system.cpu.dcache.overall_avg_miss_latency::total 15218.259198                       # average overall miss latency
system.cpu.dcache.blocked_cycles::no_mshrs            0                       # number of cycles access was blocked
system.cpu.dcache.blocked_cycles::no_targets            0                       # number of cycles access was blocked
system.cpu.dcache.blocked::no_mshrs                 0                       # number of cycles access was blocked
system.cpu.dcache.blocked::no_targets               0                       # number of cycles access was blocked
system.cpu.dcache.avg_blocked_cycles::no_mshrs          nan                       # average number of cycles each access was blocked
system.cpu.dcache.avg_blocked_cycles::no_targets          nan                       # average number of cycles each access was blocked
system.cpu.dcache.writebacks::writebacks         7290                       # number of writebacks
system.cpu.dcache.writebacks::total              7290                       # number of writebacks
system.cpu.dcache.ReadReq_mshr_misses::cpu.data        18073                       # number of ReadReq MSHR misses
system.cpu.dcache.ReadReq_mshr_misses::total        18073                       # number of ReadReq MSHR misses
system.cpu.dcache.WriteReq_mshr_misses::cpu.data          137                       # number of WriteReq MSHR misses
system.cpu.dcache.WriteReq_mshr_misses::total          137                       # number of WriteReq MSHR misses
system.cpu.dcache.demand_mshr_misses::cpu.data        18210                       # number of demand (read+write) MSHR misses
system.cpu.dcache.demand_mshr_misses::total        18210                       # number of demand (read+write) MSHR misses
system.cpu.dcache.overall_mshr_misses::cpu.data        18210                       # number of overall MSHR misses
system.cpu.dcache.overall_mshr_misses::total        18210                       # number of overall MSHR misses
system.cpu.dcache.ReadReq_mshr_miss_latency::cpu.data    248399500                       # number of ReadReq MSHR miss cycles
system.cpu.dcache.ReadReq_mshr_miss_latency::total    248399500                       # number of ReadReq MSHR miss cycles
system.cpu.dcache.WriteReq_mshr_miss_latency::cpu.data     10515000                       # number of WriteReq MSHR miss cycles
system.cpu.dcache.WriteReq_mshr_miss_latency::total     10515000                       # number of WriteReq MSHR miss cycles
system.cpu.dcache.demand_mshr_miss_latency::cpu.data    258914500                       # number of demand (read+write) MSHR miss cycles
system.cpu.dcache.demand_mshr_miss_latency::total    258914500                       # number of demand (read+write) MSHR miss cycles
system.cpu.dcache.overall_mshr_miss_latency::cpu.data    258914500                       # number of overall MSHR miss cycles
system.cpu.dcache.overall_mshr_miss_latency::total    258914500                       # number of overall MSHR miss cycles
system.cpu.dcache.ReadReq_mshr_miss_rate::cpu.data     0.000150                       # mshr miss rate for ReadReq accesses
system.cpu.dcache.ReadReq_mshr_miss_rate::total     0.000150                       # mshr miss rate for ReadReq accesses
system.cpu.dcache.WriteReq_mshr_miss_rate::cpu.data     0.000003                       # mshr miss rate for WriteReq accesses
system.cpu.dcache.WriteReq_mshr_miss_rate::total     0.000003                       # mshr miss rate for WriteReq accesses
system.cpu.dcache.demand_mshr_miss_rate::cpu.data     0.000112                       # mshr miss rate for demand accesses
system.cpu.dcache.demand_mshr_miss_rate::total     0.000112                       # mshr miss rate for demand accesses
system.cpu.dcache.overall_mshr_miss_rate::cpu.data     0.000112                       # mshr miss rate for overall accesses
system.cpu.dcache.overall_mshr_miss_rate::total     0.000112                       # mshr miss rate for overall accesses
system.cpu.dcache.ReadReq_avg_mshr_miss_latency::cpu.data 13744.231727                       # average ReadReq mshr miss latency
system.cpu.dcache.ReadReq_avg_mshr_miss_latency::total 13744.231727                       # average ReadReq mshr miss latency
system.cpu.dcache.WriteReq_avg_mshr_miss_latency::cpu.data 76751.824818                       # average WriteReq mshr miss latency
system.cpu.dcache.WriteReq_avg_mshr_miss_latency::total 76751.824818                       # average WriteReq mshr miss latency
system.cpu.dcache.demand_avg_mshr_miss_latency::cpu.data 14218.259198                       # average overall mshr miss latency
system.cpu.dcache.demand_avg_mshr_miss_latency::total 14218.259198                       # average overall mshr miss latency
system.cpu.dcache.overall_avg_mshr_miss_latency::cpu.data 14218.259198                       # average overall mshr miss latency
system.cpu.dcache.overall_avg_mshr_miss_latency::total 14218.259198                       # average overall mshr miss latency
system.cpu.dtb_walker_cache.tags.pwrStateResidencyTicks::UNDEFINED 515486391500                       # Cumulative time (in ticks) in various power states
system.cpu.dtb_walker_cache.tags.replacements            0                       # number of replacements
system.cpu.dtb_walker_cache.tags.tagsinuse            0                       # Cycle average of tags in use
system.cpu.dtb_walker_cache.tags.total_refs            0                       # Total number of references to valid blocks.
system.cpu.dtb_walker_cache.tags.sampled_refs            0                       # Sample count of references to valid blocks.
system.cpu.dtb_walker_cache.tags.avg_refs          nan                       # Average number of references to valid blocks.
system.cpu.dtb_walker_cache.tags.warmup_cycle            0                       # Cycle when the warmup percentage was hit.
system.cpu.dtb_walker_cache.tags.tag_accesses            0                       # Number of tag accesses
system.cpu.dtb_walker_cache.tags.data_accesses            0                       # Number of data accesses
system.cpu.dtb_walker_cache.pwrStateResidencyTicks::UNDEFINED 515486391500                       # Cumulative time (in ticks) in various power states
system.cpu.dtb_walker_cache.blocked_cycles::no_mshrs            0                       # number of cycles access was blocked
system.cpu.dtb_walker_cache.blocked_cycles::no_targets            0                       # number of cycles access was blocked
system.cpu.dtb_walker_cache.blocked::no_mshrs            0                       # number of cycles access was blocked
system.cpu.dtb_walker_cache.blocked::no_targets            0                       # number of cycles access was blocked
system.cpu.dtb_walker_cache.avg_blocked_cycles::no_mshrs          nan                       # average number of cycles each access was blocked
system.cpu.dtb_walker_cache.avg_blocked_cycles::no_targets          nan                       # average number of cycles each access was blocked
system.cpu.icache.tags.pwrStateResidencyTicks::UNDEFINED 515486391500                       # Cumulative time (in ticks) in various power states
system.cpu.icache.tags.replacements               353                       # number of replacements
system.cpu.icache.tags.tagsinuse           215.996163                       # Cycle average of tags in use
system.cpu.icache.tags.total_refs           352095068                       # Total number of references to valid blocks.
system.cpu.icache.tags.sampled_refs               607                       # Sample count of references to valid blocks.
system.cpu.icache.tags.avg_refs          580057.772652                       # Average number of references to valid blocks.
system.cpu.icache.tags.warmup_cycle                 0                       # Cycle when the warmup percentage was hit.
system.cpu.icache.tags.occ_blocks::cpu.inst   215.996163                       # Average occupied blocks per requestor
system.cpu.icache.tags.occ_percent::cpu.inst     0.843735                       # Average percentage of cache occupancy
system.cpu.icache.tags.occ_percent::total     0.843735                       # Average percentage of cache occupancy
system.cpu.icache.tags.occ_task_id_blocks::1024          254                       # Occupied blocks per task id
system.cpu.icache.tags.age_task_id_blocks_1024::0           84                       # Occupied blocks per task id
system.cpu.icache.tags.age_task_id_blocks_1024::1           83                       # Occupied blocks per task id
system.cpu.icache.tags.age_task_id_blocks_1024::2            6                       # Occupied blocks per task id
system.cpu.icache.tags.age_task_id_blocks_1024::4           81                       # Occupied blocks per task id
system.cpu.icache.tags.occ_task_id_percent::1024     0.992188                       # Percentage of cache occupancy per task id
system.cpu.icache.tags.tag_accesses         704191957                       # Number of tag accesses
system.cpu.icache.tags.data_accesses        704191957                       # Number of data accesses
system.cpu.icache.pwrStateResidencyTicks::UNDEFINED 515486391500                       # Cumulative time (in ticks) in various power states
system.cpu.icache.ReadReq_hits::cpu.inst    352095068                       # number of ReadReq hits
system.cpu.icache.ReadReq_hits::total       352095068                       # number of ReadReq hits
system.cpu.icache.demand_hits::cpu.inst     352095068                       # number of demand (read+write) hits
system.cpu.icache.demand_hits::total        352095068                       # number of demand (read+write) hits
system.cpu.icache.overall_hits::cpu.inst    352095068                       # number of overall hits
system.cpu.icache.overall_hits::total       352095068                       # number of overall hits
system.cpu.icache.ReadReq_misses::cpu.inst          607                       # number of ReadReq misses
system.cpu.icache.ReadReq_misses::total           607                       # number of ReadReq misses
system.cpu.icache.demand_misses::cpu.inst          607                       # number of demand (read+write) misses
system.cpu.icache.demand_misses::total            607                       # number of demand (read+write) misses
system.cpu.icache.overall_misses::cpu.inst          607                       # number of overall misses
system.cpu.icache.overall_misses::total           607                       # number of overall misses
system.cpu.icache.ReadReq_miss_latency::cpu.inst     47881000                       # number of ReadReq miss cycles
system.cpu.icache.ReadReq_miss_latency::total     47881000                       # number of ReadReq miss cycles
system.cpu.icache.demand_miss_latency::cpu.inst     47881000                       # number of demand (read+write) miss cycles
system.cpu.icache.demand_miss_latency::total     47881000                       # number of demand (read+write) miss cycles
system.cpu.icache.overall_miss_latency::cpu.inst     47881000                       # number of overall miss cycles
system.cpu.icache.overall_miss_latency::total     47881000                       # number of overall miss cycles
system.cpu.icache.ReadReq_accesses::cpu.inst    352095675                       # number of ReadReq accesses(hits+misses)
system.cpu.icache.ReadReq_accesses::total    352095675                       # number of ReadReq accesses(hits+misses)
system.cpu.icache.demand_accesses::cpu.inst    352095675                       # number of demand (read+write) accesses
system.cpu.icache.demand_accesses::total    352095675                       # number of demand (read+write) accesses
system.cpu.icache.overall_accesses::cpu.inst    352095675                       # number of overall (read+write) accesses
system.cpu.icache.overall_accesses::total    352095675                       # number of overall (read+write) accesses
system.cpu.icache.ReadReq_miss_rate::cpu.inst     0.000002                       # miss rate for ReadReq accesses
system.cpu.icache.ReadReq_miss_rate::total     0.000002                       # miss rate for ReadReq accesses
system.cpu.icache.demand_miss_rate::cpu.inst     0.000002                       # miss rate for demand accesses
system.cpu.icache.demand_miss_rate::total     0.000002                       # miss rate for demand accesses
system.cpu.icache.overall_miss_rate::cpu.inst     0.000002                       # miss rate for overall accesses
system.cpu.icache.overall_miss_rate::total     0.000002                       # miss rate for overall accesses
system.cpu.icache.ReadReq_avg_miss_latency::cpu.inst 78881.383855                       # average ReadReq miss latency
system.cpu.icache.ReadReq_avg_miss_latency::total 78881.383855                       # average ReadReq miss latency
system.cpu.icache.demand_avg_miss_latency::cpu.inst 78881.383855                       # average overall miss latency
system.cpu.icache.demand_avg_miss_latency::total 78881.383855                       # average overall miss latency
system.cpu.icache.overall_avg_miss_latency::cpu.inst 78881.383855                       # average overall miss latency
system.cpu.icache.overall_avg_miss_latency::total 78881.383855                       # average overall miss latency
system.cpu.icache.blocked_cycles::no_mshrs            0                       # number of cycles access was blocked
system.cpu.icache.blocked_cycles::no_targets            0                       # number of cycles access was blocked
system.cpu.icache.blocked::no_mshrs                 0                       # number of cycles access was blocked
system.cpu.icache.blocked::no_targets               0                       # number of cycles access was blocked
system.cpu.icache.avg_blocked_cycles::no_mshrs          nan                       # average number of cycles each access was blocked
system.cpu.icache.avg_blocked_cycles::no_targets          nan                       # average number of cycles each access was blocked
system.cpu.icache.writebacks::writebacks          353                       # number of writebacks
system.cpu.icache.writebacks::total               353                       # number of writebacks
system.cpu.icache.ReadReq_mshr_misses::cpu.inst          607                       # number of ReadReq MSHR misses
system.cpu.icache.ReadReq_mshr_misses::total          607                       # number of ReadReq MSHR misses
system.cpu.icache.demand_mshr_misses::cpu.inst          607                       # number of demand (read+write) MSHR misses
system.cpu.icache.demand_mshr_misses::total          607                       # number of demand (read+write) MSHR misses
system.cpu.icache.overall_mshr_misses::cpu.inst          607                       # number of overall MSHR misses
system.cpu.icache.overall_mshr_misses::total          607                       # number of overall MSHR misses
system.cpu.icache.ReadReq_mshr_miss_latency::cpu.inst     47274000                       # number of ReadReq MSHR miss cycles
system.cpu.icache.ReadReq_mshr_miss_latency::total     47274000                       # number of ReadReq MSHR miss cycles
system.cpu.icache.demand_mshr_miss_latency::cpu.inst     47274000                       # number of demand (read+write) MSHR miss cycles
system.cpu.icache.demand_mshr_miss_latency::total     47274000                       # number of demand (read+write) MSHR miss cycles
system.cpu.icache.overall_mshr_miss_latency::cpu.inst     47274000                       # number of overall MSHR miss cycles
system.cpu.icache.overall_mshr_miss_latency::total     47274000                       # number of overall MSHR miss cycles
system.cpu.icache.ReadReq_mshr_miss_rate::cpu.inst     0.000002                       # mshr miss rate for ReadReq accesses
system.cpu.icache.ReadReq_mshr_miss_rate::total     0.000002                       # mshr miss rate for ReadReq accesses
system.cpu.icache.demand_mshr_miss_rate::cpu.inst     0.000002                       # mshr miss rate for demand accesses
system.cpu.icache.demand_mshr_miss_rate::total     0.000002                       # mshr miss rate for demand accesses
system.cpu.icache.overall_mshr_miss_rate::cpu.inst     0.000002                       # mshr miss rate for overall accesses
system.cpu.icache.overall_mshr_miss_rate::total     0.000002                       # mshr miss rate for overall accesses
system.cpu.icache.ReadReq_avg_mshr_miss_latency::cpu.inst 77881.383855                       # average ReadReq mshr miss latency
system.cpu.icache.ReadReq_avg_mshr_miss_latency::total 77881.383855                       # average ReadReq mshr miss latency
system.cpu.icache.demand_avg_mshr_miss_latency::cpu.inst 77881.383855                       # average overall mshr miss latency
system.cpu.icache.demand_avg_mshr_miss_latency::total 77881.383855                       # average overall mshr miss latency
system.cpu.icache.overall_avg_mshr_miss_latency::cpu.inst 77881.383855                       # average overall mshr miss latency
system.cpu.icache.overall_avg_mshr_miss_latency::total 77881.383855                       # average overall mshr miss latency
system.cpu.itb_walker_cache.tags.pwrStateResidencyTicks::UNDEFINED 515486391500                       # Cumulative time (in ticks) in various power states
system.cpu.itb_walker_cache.tags.replacements            0                       # number of replacements
system.cpu.itb_walker_cache.tags.tagsinuse            0                       # Cycle average of tags in use
system.cpu.itb_walker_cache.tags.total_refs            0                       # Total number of references to valid blocks.
system.cpu.itb_walker_cache.tags.sampled_refs            0                       # Sample count of references to valid blocks.
system.cpu.itb_walker_cache.tags.avg_refs          nan                       # Average number of references to valid blocks.
system.cpu.itb_walker_cache.tags.warmup_cycle            0                       # Cycle when the warmup percentage was hit.
system.cpu.itb_walker_cache.tags.tag_accesses            0                       # Number of tag accesses
system.cpu.itb_walker_cache.tags.data_accesses            0                       # Number of data accesses
system.cpu.itb_walker_cache.pwrStateResidencyTicks::UNDEFINED 515486391500                       # Cumulative time (in ticks) in various power states
system.cpu.itb_walker_cache.blocked_cycles::no_mshrs            0                       # number of cycles access was blocked
system.cpu.itb_walker_cache.blocked_cycles::no_targets            0                       # number of cycles access was blocked
system.cpu.itb_walker_cache.blocked::no_mshrs            0                       # number of cycles access was blocked
system.cpu.itb_walker_cache.blocked::no_targets            0                       # number of cycles access was blocked
system.cpu.itb_walker_cache.avg_blocked_cycles::no_mshrs          nan                       # average number of cycles each access was blocked
system.cpu.itb_walker_cache.avg_blocked_cycles::no_targets          nan                       # average number of cycles each access was blocked
system.l2.tags.pwrStateResidencyTicks::UNDEFINED 515486391500                       # Cumulative time (in ticks) in various power states
system.l2.tags.replacements                         0                       # number of replacements
system.l2.tags.tagsinuse                   645.845029                       # Cycle average of tags in use
system.l2.tags.total_refs                       36380                       # Total number of references to valid blocks.
system.l2.tags.sampled_refs                       872                       # Sample count of references to valid blocks.
system.l2.tags.avg_refs                     41.720183                       # Average number of references to valid blocks.
system.l2.tags.warmup_cycle                         0                       # Cycle when the warmup percentage was hit.
system.l2.tags.occ_blocks::cpu.inst        347.004455                       # Average occupied blocks per requestor
system.l2.tags.occ_blocks::cpu.data        298.840574                       # Average occupied blocks per requestor
system.l2.tags.occ_percent::cpu.inst         0.010590                       # Average percentage of cache occupancy
system.l2.tags.occ_percent::cpu.data         0.009120                       # Average percentage of cache occupancy
system.l2.tags.occ_percent::total            0.019710                       # Average percentage of cache occupancy
system.l2.tags.occ_task_id_blocks::1024           872                       # Occupied blocks per task id
system.l2.tags.age_task_id_blocks_1024::0           99                       # Occupied blocks per task id
system.l2.tags.age_task_id_blocks_1024::1          109                       # Occupied blocks per task id
system.l2.tags.age_task_id_blocks_1024::2           18                       # Occupied blocks per task id
system.l2.tags.age_task_id_blocks_1024::4          646                       # Occupied blocks per task id
system.l2.tags.occ_task_id_percent::1024     0.026611                       # Percentage of cache occupancy per task id
system.l2.tags.tag_accesses                    298888                       # Number of tag accesses
system.l2.tags.data_accesses                   298888                       # Number of data accesses
system.l2.pwrStateResidencyTicks::UNDEFINED 515486391500                       # Cumulative time (in ticks) in various power states
system.l2.WritebackDirty_hits::writebacks         7290                       # number of WritebackDirty hits
system.l2.WritebackDirty_hits::total             7290                       # number of WritebackDirty hits
system.l2.WritebackClean_hits::writebacks          353                       # number of WritebackClean hits
system.l2.WritebackClean_hits::total              353                       # number of WritebackClean hits
system.l2.ReadExReq_hits::cpu.data                 18                       # number of ReadExReq hits
system.l2.ReadExReq_hits::total                    18                       # number of ReadExReq hits
system.l2.ReadCleanReq_hits::cpu.inst              62                       # number of ReadCleanReq hits
system.l2.ReadCleanReq_hits::total                 62                       # number of ReadCleanReq hits
system.l2.ReadSharedReq_hits::cpu.data          17865                       # number of ReadSharedReq hits
system.l2.ReadSharedReq_hits::total             17865                       # number of ReadSharedReq hits
system.l2.demand_hits::cpu.inst                    62                       # number of demand (read+write) hits
system.l2.demand_hits::cpu.data                 17883                       # number of demand (read+write) hits
system.l2.demand_hits::total                    17945                       # number of demand (read+write) hits
system.l2.overall_hits::cpu.inst                   62                       # number of overall hits
system.l2.overall_hits::cpu.data                17883                       # number of overall hits
system.l2.overall_hits::total                   17945                       # number of overall hits
system.l2.ReadExReq_misses::cpu.data              119                       # number of ReadExReq misses
system.l2.ReadExReq_misses::total                 119                       # number of ReadExReq misses
system.l2.ReadCleanReq_misses::cpu.inst           545                       # number of ReadCleanReq misses
system.l2.ReadCleanReq_misses::total              545                       # number of ReadCleanReq misses
system.l2.ReadSharedReq_misses::cpu.data          208                       # number of ReadSharedReq misses
system.l2.ReadSharedReq_misses::total             208                       # number of ReadSharedReq misses
system.l2.demand_misses::cpu.inst                 545                       # number of demand (read+write) misses
system.l2.demand_misses::cpu.data                 327                       # number of demand (read+write) misses
system.l2.demand_misses::total                    872                       # number of demand (read+write) misses
system.l2.overall_misses::cpu.inst                545                       # number of overall misses
system.l2.overall_misses::cpu.data                327                       # number of overall misses
system.l2.overall_misses::total                   872                       # number of overall misses
system.l2.ReadExReq_miss_latency::cpu.data     10119500                       # number of ReadExReq miss cycles
system.l2.ReadExReq_miss_latency::total      10119500                       # number of ReadExReq miss cycles
system.l2.ReadCleanReq_miss_latency::cpu.inst     45706000                       # number of ReadCleanReq miss cycles
system.l2.ReadCleanReq_miss_latency::total     45706000                       # number of ReadCleanReq miss cycles
system.l2.ReadSharedReq_miss_latency::cpu.data     33702500                       # number of ReadSharedReq miss cycles
system.l2.ReadSharedReq_miss_latency::total     33702500                       # number of ReadSharedReq miss cycles
system.l2.demand_miss_latency::cpu.inst      45706000                       # number of demand (read+write) miss cycles
system.l2.demand_miss_latency::cpu.data      43822000                       # number of demand (read+write) miss cycles
system.l2.demand_miss_latency::total         89528000                       # number of demand (read+write) miss cycles
system.l2.overall_miss_latency::cpu.inst     45706000                       # number of overall miss cycles
system.l2.overall_miss_latency::cpu.data     43822000                       # number of overall miss cycles
system.l2.overall_miss_latency::total        89528000                       # number of overall miss cycles
system.l2.WritebackDirty_accesses::writebacks         7290                       # number of WritebackDirty accesses(hits+misses)
system.l2.WritebackDirty_accesses::total         7290                       # number of WritebackDirty accesses(hits+misses)
system.l2.WritebackClean_accesses::writebacks          353                       # number of WritebackClean accesses(hits+misses)
system.l2.WritebackClean_accesses::total          353                       # number of WritebackClean accesses(hits+misses)
system.l2.ReadExReq_accesses::cpu.data            137                       # number of ReadExReq accesses(hits+misses)
system.l2.ReadExReq_accesses::total               137                       # number of ReadExReq accesses(hits+misses)
system.l2.ReadCleanReq_accesses::cpu.inst          607                       # number of ReadCleanReq accesses(hits+misses)
system.l2.ReadCleanReq_accesses::total            607                       # number of ReadCleanReq accesses(hits+misses)
system.l2.ReadSharedReq_accesses::cpu.data        18073                       # number of ReadSharedReq accesses(hits+misses)
system.l2.ReadSharedReq_accesses::total         18073                       # number of ReadSharedReq accesses(hits+misses)
system.l2.demand_accesses::cpu.inst               607                       # number of demand (read+write) accesses
system.l2.demand_accesses::cpu.data             18210                       # number of demand (read+write) accesses
system.l2.demand_accesses::total                18817                       # number of demand (read+write) accesses
system.l2.overall_accesses::cpu.inst              607                       # number of overall (read+write) accesses
system.l2.overall_accesses::cpu.data            18210                       # number of overall (read+write) accesses
system.l2.overall_accesses::total               18817                       # number of overall (read+write) accesses
system.l2.ReadExReq_miss_rate::cpu.data      0.868613                       # miss rate for ReadExReq accesses
system.l2.ReadExReq_miss_rate::total         0.868613                       # miss rate for ReadExReq accesses
system.l2.ReadCleanReq_miss_rate::cpu.inst     0.897858                       # miss rate for ReadCleanReq accesses
system.l2.ReadCleanReq_miss_rate::total      0.897858                       # miss rate for ReadCleanReq accesses
system.l2.ReadSharedReq_miss_rate::cpu.data     0.011509                       # miss rate for ReadSharedReq accesses
system.l2.ReadSharedReq_miss_rate::total     0.011509                       # miss rate for ReadSharedReq accesses
system.l2.demand_miss_rate::cpu.inst         0.897858                       # miss rate for demand accesses
system.l2.demand_miss_rate::cpu.data         0.017957                       # miss rate for demand accesses
system.l2.demand_miss_rate::total            0.046341                       # miss rate for demand accesses
system.l2.overall_miss_rate::cpu.inst        0.897858                       # miss rate for overall accesses
system.l2.overall_miss_rate::cpu.data        0.017957                       # miss rate for overall accesses
system.l2.overall_miss_rate::total           0.046341                       # miss rate for overall accesses
system.l2.ReadExReq_avg_miss_latency::cpu.data 85037.815126                       # average ReadExReq miss latency
system.l2.ReadExReq_avg_miss_latency::total 85037.815126                       # average ReadExReq miss latency
system.l2.ReadCleanReq_avg_miss_latency::cpu.inst 83864.220183                       # average ReadCleanReq miss latency
system.l2.ReadCleanReq_avg_miss_latency::total 83864.220183                       # average ReadCleanReq miss latency
system.l2.ReadSharedReq_avg_miss_latency::cpu.data 162031.250000                       # average ReadSharedReq miss latency
system.l2.ReadSharedReq_avg_miss_latency::total 162031.250000                       # average ReadSharedReq miss latency
system.l2.demand_avg_miss_latency::cpu.inst 83864.220183                       # average overall miss latency
system.l2.demand_avg_miss_latency::cpu.data 134012.232416                       # average overall miss latency
system.l2.demand_avg_miss_latency::total 102669.724771                       # average overall miss latency
system.l2.overall_avg_miss_latency::cpu.inst 83864.220183                       # average overall miss latency
system.l2.overall_avg_miss_latency::cpu.data 134012.232416                       # average overall miss latency
system.l2.overall_avg_miss_latency::total 102669.724771                       # average overall miss latency
system.l2.blocked_cycles::no_mshrs                  0                       # number of cycles access was blocked
system.l2.blocked_cycles::no_targets                0                       # number of cycles access was blocked
system.l2.blocked::no_mshrs                         0                       # number of cycles access was blocked
system.l2.blocked::no_targets                       0                       # number of cycles access was blocked
system.l2.avg_blocked_cycles::no_mshrs            nan                       # average number of cycles each access was blocked
system.l2.avg_blocked_cycles::no_targets          nan                       # average number of cycles each access was blocked
system.l2.ReadExReq_mshr_misses::cpu.data          119                       # number of ReadExReq MSHR misses
system.l2.ReadExReq_mshr_misses::total            119                       # number of ReadExReq MSHR misses
system.l2.ReadCleanReq_mshr_misses::cpu.inst          545                       # number of ReadCleanReq MSHR misses
system.l2.ReadCleanReq_mshr_misses::total          545                       # number of ReadCleanReq MSHR misses
system.l2.ReadSharedReq_mshr_misses::cpu.data          208                       # number of ReadSharedReq MSHR misses
system.l2.ReadSharedReq_mshr_misses::total          208                       # number of ReadSharedReq MSHR misses
system.l2.demand_mshr_misses::cpu.inst            545                       # number of demand (read+write) MSHR misses
system.l2.demand_mshr_misses::cpu.data            327                       # number of demand (read+write) MSHR misses
system.l2.demand_mshr_misses::total               872                       # number of demand (read+write) MSHR misses
system.l2.overall_mshr_misses::cpu.inst           545                       # number of overall MSHR misses
system.l2.overall_mshr_misses::cpu.data           327                       # number of overall MSHR misses
system.l2.overall_mshr_misses::total              872                       # number of overall MSHR misses
system.l2.ReadExReq_mshr_miss_latency::cpu.data      8929500                       # number of ReadExReq MSHR miss cycles
system.l2.ReadExReq_mshr_miss_latency::total      8929500                       # number of ReadExReq MSHR miss cycles
system.l2.ReadCleanReq_mshr_miss_latency::cpu.inst     40256000                       # number of ReadCleanReq MSHR miss cycles
system.l2.ReadCleanReq_mshr_miss_latency::total     40256000                       # number of ReadCleanReq MSHR miss cycles
system.l2.ReadSharedReq_mshr_miss_latency::cpu.data     31622500                       # number of ReadSharedReq MSHR miss cycles
system.l2.ReadSharedReq_mshr_miss_latency::total     31622500                       # number of ReadSharedReq MSHR miss cycles
system.l2.demand_mshr_miss_latency::cpu.inst     40256000                       # number of demand (read+write) MSHR miss cycles
system.l2.demand_mshr_miss_latency::cpu.data     40552000                       # number of demand (read+write) MSHR miss cycles
system.l2.demand_mshr_miss_latency::total     80808000                       # number of demand (read+write) MSHR miss cycles
system.l2.overall_mshr_miss_latency::cpu.inst     40256000                       # number of overall MSHR miss cycles
system.l2.overall_mshr_miss_latency::cpu.data     40552000                       # number of overall MSHR miss cycles
system.l2.overall_mshr_miss_latency::total     80808000                       # number of overall MSHR miss cycles
system.l2.ReadExReq_mshr_miss_rate::cpu.data     0.868613                       # mshr miss rate for ReadExReq accesses
system.l2.ReadExReq_mshr_miss_rate::total     0.868613                       # mshr miss rate for ReadExReq accesses
system.l2.ReadCleanReq_mshr_miss_rate::cpu.inst     0.897858                       # mshr miss rate for ReadCleanReq accesses
system.l2.ReadCleanReq_mshr_miss_rate::total     0.897858                       # mshr miss rate for ReadCleanReq accesses
system.l2.ReadSharedReq_mshr_miss_rate::cpu.data     0.011509                       # mshr miss rate for ReadSharedReq accesses
system.l2.ReadSharedReq_mshr_miss_rate::total     0.011509                       # mshr miss rate for ReadSharedReq accesses
system.l2.demand_mshr_miss_rate::cpu.inst     0.897858                       # mshr miss rate for demand accesses
system.l2.demand_mshr_miss_rate::cpu.data     0.017957                       # mshr miss rate for demand accesses
system.l2.demand_mshr_miss_rate::total       0.046341                       # mshr miss rate for demand accesses
system.l2.overall_mshr_miss_rate::cpu.inst     0.897858                       # mshr miss rate for overall accesses
system.l2.overall_mshr_miss_rate::cpu.data     0.017957                       # mshr miss rate for overall accesses
system.l2.overall_mshr_miss_rate::total      0.046341                       # mshr miss rate for overall accesses
system.l2.ReadExReq_avg_mshr_miss_latency::cpu.data 75037.815126                       # average ReadExReq mshr miss latency
system.l2.ReadExReq_avg_mshr_miss_latency::total 75037.815126                       # average ReadExReq mshr miss latency
system.l2.ReadCleanReq_avg_mshr_miss_latency::cpu.inst 73864.220183                       # average ReadCleanReq mshr miss latency
system.l2.ReadCleanReq_avg_mshr_miss_latency::total 73864.220183                       # average ReadCleanReq mshr miss latency
system.l2.ReadSharedReq_avg_mshr_miss_latency::cpu.data 152031.250000                       # average ReadSharedReq mshr miss latency
system.l2.ReadSharedReq_avg_mshr_miss_latency::total 152031.250000                       # average ReadSharedReq mshr miss latency
system.l2.demand_avg_mshr_miss_latency::cpu.inst 73864.220183                       # average overall mshr miss latency
system.l2.demand_avg_mshr_miss_latency::cpu.data 124012.232416                       # average overall mshr miss latency
system.l2.demand_avg_mshr_miss_latency::total 92669.724771                       # average overall mshr miss latency
system.l2.overall_avg_mshr_miss_latency::cpu.inst 73864.220183                       # average overall mshr miss latency
system.l2.overall_avg_mshr_miss_latency::cpu.data 124012.232416                       # average overall mshr miss latency
system.l2.overall_avg_mshr_miss_latency::total 92669.724771                       # average overall mshr miss latency
system.membus.snoop_filter.tot_requests           872                       # Total number of requests made to the snoop filter.
system.membus.snoop_filter.hit_single_requests            0                       # Number of requests hitting in the snoop filter with a single holder of the requested data.
system.membus.snoop_filter.hit_multi_requests            0                       # Number of requests hitting in the snoop filter with multiple (>1) holders of the requested data.
system.membus.snoop_filter.tot_snoops               0                       # Total number of snoops made to the snoop filter.
system.membus.snoop_filter.hit_single_snoops            0                       # Number of snoops hitting in the snoop filter with a single holder of the requested data.
system.membus.snoop_filter.hit_multi_snoops            0                       # Number of snoops hitting in the snoop filter with multiple (>1) holders of the requested data.
system.membus.pwrStateResidencyTicks::UNDEFINED 515486391500                       # Cumulative time (in ticks) in various power states
system.membus.trans_dist::ReadResp                753                       # Transaction distribution
system.membus.trans_dist::ReadExReq               119                       # Transaction distribution
system.membus.trans_dist::ReadExResp              119                       # Transaction distribution
system.membus.trans_dist::ReadSharedReq           753                       # Transaction distribution
system.membus.pkt_count_system.l2.mem_side::system.mem_ctrls.port         1744                       # Packet count per connected master and slave (bytes)
system.membus.pkt_count_system.l2.mem_side::total         1744                       # Packet count per connected master and slave (bytes)
system.membus.pkt_count::total                   1744                       # Packet count per connected master and slave (bytes)
system.membus.pkt_size_system.l2.mem_side::system.mem_ctrls.port        55808                       # Cumulative packet size per connected master and slave (bytes)
system.membus.pkt_size_system.l2.mem_side::total        55808                       # Cumulative packet size per connected master and slave (bytes)
system.membus.pkt_size::total                   55808                       # Cumulative packet size per connected master and slave (bytes)
system.membus.snoops                                0                       # Total snoops (count)
system.membus.snoopTraffic                          0                       # Total snoop traffic (bytes)
system.membus.snoop_fanout::samples               872                       # Request fanout histogram
system.membus.snoop_fanout::mean                    0                       # Request fanout histogram
system.membus.snoop_fanout::stdev                   0                       # Request fanout histogram
system.membus.snoop_fanout::underflows              0      0.00%      0.00% # Request fanout histogram
system.membus.snoop_fanout::0                     872    100.00%    100.00% # Request fanout histogram
system.membus.snoop_fanout::1                       0      0.00%    100.00% # Request fanout histogram
system.membus.snoop_fanout::overflows               0      0.00%    100.00% # Request fanout histogram
system.membus.snoop_fanout::min_value               0                       # Request fanout histogram
system.membus.snoop_fanout::max_value               0                       # Request fanout histogram
system.membus.snoop_fanout::total                 872                       # Request fanout histogram
system.membus.reqLayer2.occupancy              884500                       # Layer occupancy (ticks)
system.membus.reqLayer2.utilization               0.0                       # Layer utilization (%)
system.membus.respLayer1.occupancy            4669250                       # Layer occupancy (ticks)
system.membus.respLayer1.utilization              0.0                       # Layer utilization (%)
system.tol2bus.snoop_filter.tot_requests        37252                       # Total number of requests made to the snoop filter.
system.tol2bus.snoop_filter.hit_single_requests        18435                       # Number of requests hitting in the snoop filter with a single holder of the requested data.
system.tol2bus.snoop_filter.hit_multi_requests            0                       # Number of requests hitting in the snoop filter with multiple (>1) holders of the requested data.
system.tol2bus.snoop_filter.tot_snoops              0                       # Total number of snoops made to the snoop filter.
system.tol2bus.snoop_filter.hit_single_snoops            0                       # Number of snoops hitting in the snoop filter with a single holder of the requested data.
system.tol2bus.snoop_filter.hit_multi_snoops            0                       # Number of snoops hitting in the snoop filter with multiple (>1) holders of the requested data.
system.tol2bus.pwrStateResidencyTicks::UNDEFINED 515486391500                       # Cumulative time (in ticks) in various power states
system.tol2bus.trans_dist::ReadResp             18680                       # Transaction distribution
system.tol2bus.trans_dist::WritebackDirty         7290                       # Transaction distribution
system.tol2bus.trans_dist::WritebackClean          353                       # Transaction distribution
system.tol2bus.trans_dist::CleanEvict           10792                       # Transaction distribution
system.tol2bus.trans_dist::ReadExReq              137                       # Transaction distribution
system.tol2bus.trans_dist::ReadExResp             137                       # Transaction distribution
system.tol2bus.trans_dist::ReadCleanReq           607                       # Transaction distribution
system.tol2bus.trans_dist::ReadSharedReq        18073                       # Transaction distribution
system.tol2bus.pkt_count_system.cpu.icache.mem_side::system.l2.cpu_side         1567                       # Packet count per connected master and slave (bytes)
system.tol2bus.pkt_count_system.cpu.dcache.mem_side::system.l2.cpu_side        54502                       # Packet count per connected master and slave (bytes)
system.tol2bus.pkt_count::total                 56069                       # Packet count per connected master and slave (bytes)
system.tol2bus.pkt_size_system.cpu.icache.mem_side::system.l2.cpu_side        61440                       # Cumulative packet size per connected master and slave (bytes)
system.tol2bus.pkt_size_system.cpu.dcache.mem_side::system.l2.cpu_side      1632000                       # Cumulative packet size per connected master and slave (bytes)
system.tol2bus.pkt_size::total                1693440                       # Cumulative packet size per connected master and slave (bytes)
system.tol2bus.snoops                               0                       # Total snoops (count)
system.tol2bus.snoopTraffic                         0                       # Total snoop traffic (bytes)
system.tol2bus.snoop_fanout::samples            18817                       # Request fanout histogram
system.tol2bus.snoop_fanout::mean                   0                       # Request fanout histogram
system.tol2bus.snoop_fanout::stdev                  0                       # Request fanout histogram
system.tol2bus.snoop_fanout::underflows             0      0.00%      0.00% # Request fanout histogram
system.tol2bus.snoop_fanout::0                  18817    100.00%    100.00% # Request fanout histogram
system.tol2bus.snoop_fanout::1                      0      0.00%    100.00% # Request fanout histogram
system.tol2bus.snoop_fanout::2                      0      0.00%    100.00% # Request fanout histogram
system.tol2bus.snoop_fanout::3                      0      0.00%    100.00% # Request fanout histogram
system.tol2bus.snoop_fanout::4                      0      0.00%    100.00% # Request fanout histogram
system.tol2bus.snoop_fanout::overflows              0      0.00%    100.00% # Request fanout histogram
system.tol2bus.snoop_fanout::min_value              0                       # Request fanout histogram
system.tol2bus.snoop_fanout::max_value              0                       # Request fanout histogram
system.tol2bus.snoop_fanout::total              18817                       # Request fanout histogram
system.tol2bus.reqLayer0.occupancy           26269000                       # Layer occupancy (ticks)
system.tol2bus.reqLayer0.utilization              0.0                       # Layer utilization (%)
system.tol2bus.respLayer0.occupancy            910500                       # Layer occupancy (ticks)
system.tol2bus.respLayer0.utilization             0.0                       # Layer utilization (%)
system.tol2bus.respLayer1.occupancy          27315000                       # Layer occupancy (ticks)
system.tol2bus.respLayer1.utilization             0.0                       # Layer utilization (%)

---------- End Simulation Statistics   ----------
