
---------- Begin Simulation Statistics ----------
sim_seconds                                  0.500879                       # Number of seconds simulated
sim_ticks                                500878833500                       # Number of ticks simulated
final_tick                               500878833500                       # Number of ticks from beginning of simulation (restored from checkpoints and never reset)
sim_freq                                 1000000000000                       # Frequency of simulated ticks
host_inst_rate                                2096558                       # Simulator instruction rate (inst/s)
host_op_rate                                  2109613                       # Simulator op (including micro ops) rate (op/s)
host_tick_rate                             3189578642                       # Simulator tick rate (ticks/s)
host_mem_usage                                 691596                       # Number of bytes of host memory used
host_seconds                                   157.04                       # Real time elapsed on the host
sim_insts                                   329235205                       # Number of instructions simulated
sim_ops                                     331285316                       # Number of ops (including micro ops) simulated
system.voltage_domain.voltage                       1                       # Voltage in Volts
system.clk_domain.clock                          1000                       # Clock period in ticks
system.mem_ctrls.pwrStateResidencyTicks::UNDEFINED 500878833500                       # Cumulative time (in ticks) in various power states
system.mem_ctrls.bytes_read::cpu.inst           28800                       # Number of bytes read from this memory
system.mem_ctrls.bytes_read::cpu.data           19392                       # Number of bytes read from this memory
system.mem_ctrls.bytes_read::total              48192                       # Number of bytes read from this memory
system.mem_ctrls.bytes_inst_read::cpu.inst        28800                       # Number of instructions bytes read from this memory
system.mem_ctrls.bytes_inst_read::total         28800                       # Number of instructions bytes read from this memory
system.mem_ctrls.num_reads::cpu.inst              450                       # Number of read requests responded to by this memory
system.mem_ctrls.num_reads::cpu.data              303                       # Number of read requests responded to by this memory
system.mem_ctrls.num_reads::total                 753                       # Number of read requests responded to by this memory
system.mem_ctrls.bw_read::cpu.inst              57499                       # Total read bandwidth from this memory (bytes/s)
system.mem_ctrls.bw_read::cpu.data              38716                       # Total read bandwidth from this memory (bytes/s)
system.mem_ctrls.bw_read::total                 96215                       # Total read bandwidth from this memory (bytes/s)
system.mem_ctrls.bw_inst_read::cpu.inst         57499                       # Instruction read bandwidth from this memory (bytes/s)
system.mem_ctrls.bw_inst_read::total            57499                       # Instruction read bandwidth from this memory (bytes/s)
system.mem_ctrls.bw_total::cpu.inst             57499                       # Total bandwidth to/from this memory (bytes/s)
system.mem_ctrls.bw_total::cpu.data             38716                       # Total bandwidth to/from this memory (bytes/s)
system.mem_ctrls.bw_total::total                96215                       # Total bandwidth to/from this memory (bytes/s)
system.mem_ctrls.readReqs                         753                       # Number of read requests accepted
system.mem_ctrls.writeReqs                          0                       # Number of write requests accepted
system.mem_ctrls.readBursts                       753                       # Number of DRAM read bursts, including those serviced by the write queue
system.mem_ctrls.writeBursts                        0                       # Number of DRAM write bursts, including those merged in the write queue
system.mem_ctrls.bytesReadDRAM                  48192                       # Total number of bytes read from DRAM
system.mem_ctrls.bytesReadWrQ                       0                       # Total number of bytes read from write queue
system.mem_ctrls.bytesWritten                       0                       # Total number of bytes written to DRAM
system.mem_ctrls.bytesReadSys                   48192                       # Total read bytes from the system interface side
system.mem_ctrls.bytesWrittenSys                    0                       # Total written bytes from the system interface side
system.mem_ctrls.servicedByWrQ                      0                       # Number of DRAM read bursts serviced by the write queue
system.mem_ctrls.mergedWrBursts                     0                       # Number of DRAM write bursts merged with an existing one
system.mem_ctrls.neitherReadNorWriteReqs            0                       # Number of requests that are neither read nor write
system.mem_ctrls.perBankRdBursts::0                92                       # Per bank write bursts
system.mem_ctrls.perBankRdBursts::1                 1                       # Per bank write bursts
system.mem_ctrls.perBankRdBursts::2                25                       # Per bank write bursts
system.mem_ctrls.perBankRdBursts::3                48                       # Per bank write bursts
system.mem_ctrls.perBankRdBursts::4                22                       # Per bank write bursts
system.mem_ctrls.perBankRdBursts::5                95                       # Per bank write bursts
system.mem_ctrls.perBankRdBursts::6                68                       # Per bank write bursts
system.mem_ctrls.perBankRdBursts::7                28                       # Per bank write bursts
system.mem_ctrls.perBankRdBursts::8                36                       # Per bank write bursts
system.mem_ctrls.perBankRdBursts::9                18                       # Per bank write bursts
system.mem_ctrls.perBankRdBursts::10               53                       # Per bank write bursts
system.mem_ctrls.perBankRdBursts::11              107                       # Per bank write bursts
system.mem_ctrls.perBankRdBursts::12               34                       # Per bank write bursts
system.mem_ctrls.perBankRdBursts::13               92                       # Per bank write bursts
system.mem_ctrls.perBankRdBursts::14               30                       # Per bank write bursts
system.mem_ctrls.perBankRdBursts::15                4                       # Per bank write bursts
system.mem_ctrls.perBankWrBursts::0                 0                       # Per bank write bursts
system.mem_ctrls.perBankWrBursts::1                 0                       # Per bank write bursts
system.mem_ctrls.perBankWrBursts::2                 0                       # Per bank write bursts
system.mem_ctrls.perBankWrBursts::3                 0                       # Per bank write bursts
system.mem_ctrls.perBankWrBursts::4                 0                       # Per bank write bursts
system.mem_ctrls.perBankWrBursts::5                 0                       # Per bank write bursts
system.mem_ctrls.perBankWrBursts::6                 0                       # Per bank write bursts
system.mem_ctrls.perBankWrBursts::7                 0                       # Per bank write bursts
system.mem_ctrls.perBankWrBursts::8                 0                       # Per bank write bursts
system.mem_ctrls.perBankWrBursts::9                 0                       # Per bank write bursts
system.mem_ctrls.perBankWrBursts::10                0                       # Per bank write bursts
system.mem_ctrls.perBankWrBursts::11                0                       # Per bank write bursts
system.mem_ctrls.perBankWrBursts::12                0                       # Per bank write bursts
system.mem_ctrls.perBankWrBursts::13                0                       # Per bank write bursts
system.mem_ctrls.perBankWrBursts::14                0                       # Per bank write bursts
system.mem_ctrls.perBankWrBursts::15                0                       # Per bank write bursts
system.mem_ctrls.numRdRetry                         0                       # Number of times read queue was full causing retry
system.mem_ctrls.numWrRetry                         0                       # Number of times write queue was full causing retry
system.mem_ctrls.totGap                  500878736500                       # Total gap between requests
system.mem_ctrls.readPktSize::0                     0                       # Read request sizes (log2)
system.mem_ctrls.readPktSize::1                     0                       # Read request sizes (log2)
system.mem_ctrls.readPktSize::2                     0                       # Read request sizes (log2)
system.mem_ctrls.readPktSize::3                     0                       # Read request sizes (log2)
system.mem_ctrls.readPktSize::4                     0                       # Read request sizes (log2)
system.mem_ctrls.readPktSize::5                     0                       # Read request sizes (log2)
system.mem_ctrls.readPktSize::6                   753                       # Read request sizes (log2)
system.mem_ctrls.writePktSize::0                    0                       # Write request sizes (log2)
system.mem_ctrls.writePktSize::1                    0                       # Write request sizes (log2)
system.mem_ctrls.writePktSize::2                    0                       # Write request sizes (log2)
system.mem_ctrls.writePktSize::3                    0                       # Write request sizes (log2)
system.mem_ctrls.writePktSize::4                    0                       # Write request sizes (log2)
system.mem_ctrls.writePktSize::5                    0                       # Write request sizes (log2)
system.mem_ctrls.writePktSize::6                    0                       # Write request sizes (log2)
system.mem_ctrls.rdQLenPdf::0                     752                       # What read queue length does an incoming req see
system.mem_ctrls.rdQLenPdf::1                       1                       # What read queue length does an incoming req see
system.mem_ctrls.rdQLenPdf::2                       0                       # What read queue length does an incoming req see
system.mem_ctrls.rdQLenPdf::3                       0                       # What read queue length does an incoming req see
system.mem_ctrls.rdQLenPdf::4                       0                       # What read queue length does an incoming req see
system.mem_ctrls.rdQLenPdf::5                       0                       # What read queue length does an incoming req see
system.mem_ctrls.rdQLenPdf::6                       0                       # What read queue length does an incoming req see
system.mem_ctrls.rdQLenPdf::7                       0                       # What read queue length does an incoming req see
system.mem_ctrls.rdQLenPdf::8                       0                       # What read queue length does an incoming req see
system.mem_ctrls.rdQLenPdf::9                       0                       # What read queue length does an incoming req see
system.mem_ctrls.rdQLenPdf::10                      0                       # What read queue length does an incoming req see
system.mem_ctrls.rdQLenPdf::11                      0                       # What read queue length does an incoming req see
system.mem_ctrls.rdQLenPdf::12                      0                       # What read queue length does an incoming req see
system.mem_ctrls.rdQLenPdf::13                      0                       # What read queue length does an incoming req see
system.mem_ctrls.rdQLenPdf::14                      0                       # What read queue length does an incoming req see
system.mem_ctrls.rdQLenPdf::15                      0                       # What read queue length does an incoming req see
system.mem_ctrls.rdQLenPdf::16                      0                       # What read queue length does an incoming req see
system.mem_ctrls.rdQLenPdf::17                      0                       # What read queue length does an incoming req see
system.mem_ctrls.rdQLenPdf::18                      0                       # What read queue length does an incoming req see
system.mem_ctrls.rdQLenPdf::19                      0                       # What read queue length does an incoming req see
system.mem_ctrls.rdQLenPdf::20                      0                       # What read queue length does an incoming req see
system.mem_ctrls.rdQLenPdf::21                      0                       # What read queue length does an incoming req see
system.mem_ctrls.rdQLenPdf::22                      0                       # What read queue length does an incoming req see
system.mem_ctrls.rdQLenPdf::23                      0                       # What read queue length does an incoming req see
system.mem_ctrls.rdQLenPdf::24                      0                       # What read queue length does an incoming req see
system.mem_ctrls.rdQLenPdf::25                      0                       # What read queue length does an incoming req see
system.mem_ctrls.rdQLenPdf::26                      0                       # What read queue length does an incoming req see
system.mem_ctrls.rdQLenPdf::27                      0                       # What read queue length does an incoming req see
system.mem_ctrls.rdQLenPdf::28                      0                       # What read queue length does an incoming req see
system.mem_ctrls.rdQLenPdf::29                      0                       # What read queue length does an incoming req see
system.mem_ctrls.rdQLenPdf::30                      0                       # What read queue length does an incoming req see
system.mem_ctrls.rdQLenPdf::31                      0                       # What read queue length does an incoming req see
system.mem_ctrls.wrQLenPdf::0                       0                       # What write queue length does an incoming req see
system.mem_ctrls.wrQLenPdf::1                       0                       # What write queue length does an incoming req see
system.mem_ctrls.wrQLenPdf::2                       0                       # What write queue length does an incoming req see
system.mem_ctrls.wrQLenPdf::3                       0                       # What write queue length does an incoming req see
system.mem_ctrls.wrQLenPdf::4                       0                       # What write queue length does an incoming req see
system.mem_ctrls.wrQLenPdf::5                       0                       # What write queue length does an incoming req see
system.mem_ctrls.wrQLenPdf::6                       0                       # What write queue length does an incoming req see
system.mem_ctrls.wrQLenPdf::7                       0                       # What write queue length does an incoming req see
system.mem_ctrls.wrQLenPdf::8                       0                       # What write queue length does an incoming req see
system.mem_ctrls.wrQLenPdf::9                       0                       # What write queue length does an incoming req see
system.mem_ctrls.wrQLenPdf::10                      0                       # What write queue length does an incoming req see
system.mem_ctrls.wrQLenPdf::11                      0                       # What write queue length does an incoming req see
system.mem_ctrls.wrQLenPdf::12                      0                       # What write queue length does an incoming req see
system.mem_ctrls.wrQLenPdf::13                      0                       # What write queue length does an incoming req see
system.mem_ctrls.wrQLenPdf::14                      0                       # What write queue length does an incoming req see
system.mem_ctrls.wrQLenPdf::15                      0                       # What write queue length does an incoming req see
system.mem_ctrls.wrQLenPdf::16                      0                       # What write queue length does an incoming req see
system.mem_ctrls.wrQLenPdf::17                      0                       # What write queue length does an incoming req see
system.mem_ctrls.wrQLenPdf::18                      0                       # What write queue length does an incoming req see
system.mem_ctrls.wrQLenPdf::19                      0                       # What write queue length does an incoming req see
system.mem_ctrls.wrQLenPdf::20                      0                       # What write queue length does an incoming req see
system.mem_ctrls.wrQLenPdf::21                      0                       # What write queue length does an incoming req see
system.mem_ctrls.wrQLenPdf::22                      0                       # What write queue length does an incoming req see
system.mem_ctrls.wrQLenPdf::23                      0                       # What write queue length does an incoming req see
system.mem_ctrls.wrQLenPdf::24                      0                       # What write queue length does an incoming req see
system.mem_ctrls.wrQLenPdf::25                      0                       # What write queue length does an incoming req see
system.mem_ctrls.wrQLenPdf::26                      0                       # What write queue length does an incoming req see
system.mem_ctrls.wrQLenPdf::27                      0                       # What write queue length does an incoming req see
system.mem_ctrls.wrQLenPdf::28                      0                       # What write queue length does an incoming req see
system.mem_ctrls.wrQLenPdf::29                      0                       # What write queue length does an incoming req see
system.mem_ctrls.wrQLenPdf::30                      0                       # What write queue length does an incoming req see
system.mem_ctrls.wrQLenPdf::31                      0                       # What write queue length does an incoming req see
system.mem_ctrls.wrQLenPdf::32                      0                       # What write queue length does an incoming req see
system.mem_ctrls.wrQLenPdf::33                      0                       # What write queue length does an incoming req see
system.mem_ctrls.wrQLenPdf::34                      0                       # What write queue length does an incoming req see
system.mem_ctrls.wrQLenPdf::35                      0                       # What write queue length does an incoming req see
system.mem_ctrls.wrQLenPdf::36                      0                       # What write queue length does an incoming req see
system.mem_ctrls.wrQLenPdf::37                      0                       # What write queue length does an incoming req see
system.mem_ctrls.wrQLenPdf::38                      0                       # What write queue length does an incoming req see
system.mem_ctrls.wrQLenPdf::39                      0                       # What write queue length does an incoming req see
system.mem_ctrls.wrQLenPdf::40                      0                       # What write queue length does an incoming req see
system.mem_ctrls.wrQLenPdf::41                      0                       # What write queue length does an incoming req see
system.mem_ctrls.wrQLenPdf::42                      0                       # What write queue length does an incoming req see
system.mem_ctrls.wrQLenPdf::43                      0                       # What write queue length does an incoming req see
system.mem_ctrls.wrQLenPdf::44                      0                       # What write queue length does an incoming req see
system.mem_ctrls.wrQLenPdf::45                      0                       # What write queue length does an incoming req see
system.mem_ctrls.wrQLenPdf::46                      0                       # What write queue length does an incoming req see
system.mem_ctrls.wrQLenPdf::47                      0                       # What write queue length does an incoming req see
system.mem_ctrls.wrQLenPdf::48                      0                       # What write queue length does an incoming req see
system.mem_ctrls.wrQLenPdf::49                      0                       # What write queue length does an incoming req see
system.mem_ctrls.wrQLenPdf::50                      0                       # What write queue length does an incoming req see
system.mem_ctrls.wrQLenPdf::51                      0                       # What write queue length does an incoming req see
system.mem_ctrls.wrQLenPdf::52                      0                       # What write queue length does an incoming req see
system.mem_ctrls.wrQLenPdf::53                      0                       # What write queue length does an incoming req see
system.mem_ctrls.wrQLenPdf::54                      0                       # What write queue length does an incoming req see
system.mem_ctrls.wrQLenPdf::55                      0                       # What write queue length does an incoming req see
system.mem_ctrls.wrQLenPdf::56                      0                       # What write queue length does an incoming req see
system.mem_ctrls.wrQLenPdf::57                      0                       # What write queue length does an incoming req see
system.mem_ctrls.wrQLenPdf::58                      0                       # What write queue length does an incoming req see
system.mem_ctrls.wrQLenPdf::59                      0                       # What write queue length does an incoming req see
system.mem_ctrls.wrQLenPdf::60                      0                       # What write queue length does an incoming req see
system.mem_ctrls.wrQLenPdf::61                      0                       # What write queue length does an incoming req see
system.mem_ctrls.wrQLenPdf::62                      0                       # What write queue length does an incoming req see
system.mem_ctrls.wrQLenPdf::63                      0                       # What write queue length does an incoming req see
system.mem_ctrls.bytesPerActivate::samples          240                       # Bytes accessed per row activation
system.mem_ctrls.bytesPerActivate::mean    194.400000                       # Bytes accessed per row activation
system.mem_ctrls.bytesPerActivate::gmean   118.026354                       # Bytes accessed per row activation
system.mem_ctrls.bytesPerActivate::stdev   247.790112                       # Bytes accessed per row activation
system.mem_ctrls.bytesPerActivate::0-127          147     61.25%     61.25% # Bytes accessed per row activation
system.mem_ctrls.bytesPerActivate::128-255           38     15.83%     77.08% # Bytes accessed per row activation
system.mem_ctrls.bytesPerActivate::256-383           20      8.33%     85.42% # Bytes accessed per row activation
system.mem_ctrls.bytesPerActivate::384-511            6      2.50%     87.92% # Bytes accessed per row activation
system.mem_ctrls.bytesPerActivate::512-639            9      3.75%     91.67% # Bytes accessed per row activation
system.mem_ctrls.bytesPerActivate::640-767            2      0.83%     92.50% # Bytes accessed per row activation
system.mem_ctrls.bytesPerActivate::768-895            6      2.50%     95.00% # Bytes accessed per row activation
system.mem_ctrls.bytesPerActivate::896-1023            2      0.83%     95.83% # Bytes accessed per row activation
system.mem_ctrls.bytesPerActivate::1024-1151           10      4.17%    100.00% # Bytes accessed per row activation
system.mem_ctrls.bytesPerActivate::total          240                       # Bytes accessed per row activation
system.mem_ctrls.totQLat                     27567250                       # Total ticks spent queuing
system.mem_ctrls.totMemAccLat                41686000                       # Total ticks spent from burst creation until serviced by the DRAM
system.mem_ctrls.totBusLat                    3765000                       # Total ticks spent in databus transfers
system.mem_ctrls.avgQLat                     36609.89                       # Average queueing delay per DRAM burst
system.mem_ctrls.avgBusLat                    5000.00                       # Average bus latency per DRAM burst
system.mem_ctrls.avgMemAccLat                55359.89                       # Average memory access latency per DRAM burst
system.mem_ctrls.avgRdBW                         0.10                       # Average DRAM read bandwidth in MiByte/s
system.mem_ctrls.avgWrBW                         0.00                       # Average achieved write bandwidth in MiByte/s
system.mem_ctrls.avgRdBWSys                      0.10                       # Average system read bandwidth in MiByte/s
system.mem_ctrls.avgWrBWSys                      0.00                       # Average system write bandwidth in MiByte/s
system.mem_ctrls.peakBW                      12800.00                       # Theoretical peak bandwidth in MiByte/s
system.mem_ctrls.busUtil                         0.00                       # Data bus utilization in percentage
system.mem_ctrls.busUtilRead                     0.00                       # Data bus utilization in percentage for reads
system.mem_ctrls.busUtilWrite                    0.00                       # Data bus utilization in percentage for writes
system.mem_ctrls.avgRdQLen                       1.00                       # Average read queue length when enqueuing
system.mem_ctrls.avgWrQLen                       0.00                       # Average write queue length when enqueuing
system.mem_ctrls.readRowHits                      505                       # Number of row buffer hits during reads
system.mem_ctrls.writeRowHits                       0                       # Number of row buffer hits during writes
system.mem_ctrls.readRowHitRate                 67.07                       # Row buffer hit rate for reads
system.mem_ctrls.writeRowHitRate                  nan                       # Row buffer hit rate for writes
system.mem_ctrls.avgGap                  665177604.91                       # Average gap between requests
system.mem_ctrls.pageHitRate                    67.07                       # Row buffer hit rate, read and write combined
system.mem_ctrls_0.actEnergy                   449820                       # Energy for activate commands per rank (pJ)
system.mem_ctrls_0.preEnergy                   220110                       # Energy for precharge commands per rank (pJ)
system.mem_ctrls_0.readEnergy                 2706060                       # Energy for read commands per rank (pJ)
system.mem_ctrls_0.writeEnergy                      0                       # Energy for write commands per rank (pJ)
system.mem_ctrls_0.refreshEnergy         11678160.000000                       # Energy for refresh commands per rank (pJ)
system.mem_ctrls_0.actBackEnergy              7077120                       # Energy for active background per rank (pJ)
system.mem_ctrls_0.preBackEnergy               526080                       # Energy for precharge background per rank (pJ)
system.mem_ctrls_0.actPowerDownEnergy        37986510                       # Energy for active power-down per rank (pJ)
system.mem_ctrls_0.prePowerDownEnergy        11821920                       # Energy for precharge power-down per rank (pJ)
system.mem_ctrls_0.selfRefreshEnergy     120181141620                       # Energy for self refresh per rank (pJ)
system.mem_ctrls_0.totalEnergy           120253607400                       # Total energy per rank (pJ)
system.mem_ctrls_0.averagePower            240.085225                       # Core power per rank (mW)
system.mem_ctrls_0.totalIdleTime         500861744500                       # Total Idle time Per DRAM Rank
system.mem_ctrls_0.memoryStateTime::IDLE       881500                       # Time in different power states
system.mem_ctrls_0.memoryStateTime::REF       4958000                       # Time in different power states
system.mem_ctrls_0.memoryStateTime::SREF 500747854000                       # Time in different power states
system.mem_ctrls_0.memoryStateTime::PRE_PDN     30786750                       # Time in different power states
system.mem_ctrls_0.memoryStateTime::ACT      11042750                       # Time in different power states
system.mem_ctrls_0.memoryStateTime::ACT_PDN     83310500                       # Time in different power states
system.mem_ctrls_1.actEnergy                  1320900                       # Energy for activate commands per rank (pJ)
system.mem_ctrls_1.preEnergy                   690690                       # Energy for precharge commands per rank (pJ)
system.mem_ctrls_1.readEnergy                 2670360                       # Energy for read commands per rank (pJ)
system.mem_ctrls_1.writeEnergy                      0                       # Energy for write commands per rank (pJ)
system.mem_ctrls_1.refreshEnergy         114323040.000000                       # Energy for refresh commands per rank (pJ)
system.mem_ctrls_1.actBackEnergy             26493030                       # Energy for active background per rank (pJ)
system.mem_ctrls_1.preBackEnergy              5082720                       # Energy for precharge background per rank (pJ)
system.mem_ctrls_1.actPowerDownEnergy       253668810                       # Energy for active power-down per rank (pJ)
system.mem_ctrls_1.prePowerDownEnergy       233093280                       # Energy for precharge power-down per rank (pJ)
system.mem_ctrls_1.selfRefreshEnergy     119931173700                       # Energy for self refresh per rank (pJ)
system.mem_ctrls_1.totalEnergy           120568516530                       # Total energy per rank (pJ)
system.mem_ctrls_1.averagePower            240.713938                       # Core power per rank (mW)
system.mem_ctrls_1.totalIdleTime         500807462250                       # Total Idle time Per DRAM Rank
system.mem_ctrls_1.memoryStateTime::IDLE      8772000                       # Time in different power states
system.mem_ctrls_1.memoryStateTime::REF      48546000                       # Time in different power states
system.mem_ctrls_1.memoryStateTime::SREF 499644193000                       # Time in different power states
system.mem_ctrls_1.memoryStateTime::PRE_PDN    607011250                       # Time in different power states
system.mem_ctrls_1.memoryStateTime::ACT      14006250                       # Time in different power states
system.mem_ctrls_1.memoryStateTime::ACT_PDN    556305000                       # Time in different power states
system.pwrStateResidencyTicks::UNDEFINED 500878833500                       # Cumulative time (in ticks) in various power states
system.cpu_voltage_domain.voltage                   1                       # Voltage in Volts
system.cpu_clk_domain.clock                       500                       # Clock period in ticks
system.cpu.dstage2_mmu.stage2_tlb.walker.pwrStateResidencyTicks::UNDEFINED 500878833500                       # Cumulative time (in ticks) in various power states
system.cpu.dstage2_mmu.stage2_tlb.walker.walks            0                       # Table walker walks requested
system.cpu.dstage2_mmu.stage2_tlb.walker.walkRequestOrigin_Requested::Data            0                       # Table walker requests started/completed, data/inst
system.cpu.dstage2_mmu.stage2_tlb.walker.walkRequestOrigin_Requested::Inst            0                       # Table walker requests started/completed, data/inst
system.cpu.dstage2_mmu.stage2_tlb.walker.walkRequestOrigin_Requested::total            0                       # Table walker requests started/completed, data/inst
system.cpu.dstage2_mmu.stage2_tlb.walker.walkRequestOrigin_Completed::Data            0                       # Table walker requests started/completed, data/inst
system.cpu.dstage2_mmu.stage2_tlb.walker.walkRequestOrigin_Completed::Inst            0                       # Table walker requests started/completed, data/inst
system.cpu.dstage2_mmu.stage2_tlb.walker.walkRequestOrigin_Completed::total            0                       # Table walker requests started/completed, data/inst
system.cpu.dstage2_mmu.stage2_tlb.walker.walkRequestOrigin::total            0                       # Table walker requests started/completed, data/inst
system.cpu.dstage2_mmu.stage2_tlb.inst_hits            0                       # ITB inst hits
system.cpu.dstage2_mmu.stage2_tlb.inst_misses            0                       # ITB inst misses
system.cpu.dstage2_mmu.stage2_tlb.read_hits            0                       # DTB read hits
system.cpu.dstage2_mmu.stage2_tlb.read_misses            0                       # DTB read misses
system.cpu.dstage2_mmu.stage2_tlb.write_hits            0                       # DTB write hits
system.cpu.dstage2_mmu.stage2_tlb.write_misses            0                       # DTB write misses
system.cpu.dstage2_mmu.stage2_tlb.flush_tlb            0                       # Number of times complete TLB was flushed
system.cpu.dstage2_mmu.stage2_tlb.flush_tlb_mva            0                       # Number of times TLB was flushed by MVA
system.cpu.dstage2_mmu.stage2_tlb.flush_tlb_mva_asid            0                       # Number of times TLB was flushed by MVA & ASID
system.cpu.dstage2_mmu.stage2_tlb.flush_tlb_asid            0                       # Number of times TLB was flushed by ASID
system.cpu.dstage2_mmu.stage2_tlb.flush_entries            0                       # Number of entries that have been flushed from TLB
system.cpu.dstage2_mmu.stage2_tlb.align_faults            0                       # Number of TLB faults due to alignment restrictions
system.cpu.dstage2_mmu.stage2_tlb.prefetch_faults            0                       # Number of TLB faults due to prefetch
system.cpu.dstage2_mmu.stage2_tlb.domain_faults            0                       # Number of TLB faults due to domain restrictions
system.cpu.dstage2_mmu.stage2_tlb.perms_faults            0                       # Number of TLB faults due to permissions restrictions
system.cpu.dstage2_mmu.stage2_tlb.read_accesses            0                       # DTB read accesses
system.cpu.dstage2_mmu.stage2_tlb.write_accesses            0                       # DTB write accesses
system.cpu.dstage2_mmu.stage2_tlb.inst_accesses            0                       # ITB inst accesses
system.cpu.dstage2_mmu.stage2_tlb.hits              0                       # DTB hits
system.cpu.dstage2_mmu.stage2_tlb.misses            0                       # DTB misses
system.cpu.dstage2_mmu.stage2_tlb.accesses            0                       # DTB accesses
system.cpu.dtb.walker.pwrStateResidencyTicks::UNDEFINED 500878833500                       # Cumulative time (in ticks) in various power states
system.cpu.dtb.walker.walks                         0                       # Table walker walks requested
system.cpu.dtb.walker.walkRequestOrigin_Requested::Data            0                       # Table walker requests started/completed, data/inst
system.cpu.dtb.walker.walkRequestOrigin_Requested::Inst            0                       # Table walker requests started/completed, data/inst
system.cpu.dtb.walker.walkRequestOrigin_Requested::total            0                       # Table walker requests started/completed, data/inst
system.cpu.dtb.walker.walkRequestOrigin_Completed::Data            0                       # Table walker requests started/completed, data/inst
system.cpu.dtb.walker.walkRequestOrigin_Completed::Inst            0                       # Table walker requests started/completed, data/inst
system.cpu.dtb.walker.walkRequestOrigin_Completed::total            0                       # Table walker requests started/completed, data/inst
system.cpu.dtb.walker.walkRequestOrigin::total            0                       # Table walker requests started/completed, data/inst
system.cpu.dtb.inst_hits                            0                       # ITB inst hits
system.cpu.dtb.inst_misses                          0                       # ITB inst misses
system.cpu.dtb.read_hits                            0                       # DTB read hits
system.cpu.dtb.read_misses                          0                       # DTB read misses
system.cpu.dtb.write_hits                           0                       # DTB write hits
system.cpu.dtb.write_misses                         0                       # DTB write misses
system.cpu.dtb.flush_tlb                            0                       # Number of times complete TLB was flushed
system.cpu.dtb.flush_tlb_mva                        0                       # Number of times TLB was flushed by MVA
system.cpu.dtb.flush_tlb_mva_asid                   0                       # Number of times TLB was flushed by MVA & ASID
system.cpu.dtb.flush_tlb_asid                       0                       # Number of times TLB was flushed by ASID
system.cpu.dtb.flush_entries                        0                       # Number of entries that have been flushed from TLB
system.cpu.dtb.align_faults                         0                       # Number of TLB faults due to alignment restrictions
system.cpu.dtb.prefetch_faults                      0                       # Number of TLB faults due to prefetch
system.cpu.dtb.domain_faults                        0                       # Number of TLB faults due to domain restrictions
system.cpu.dtb.perms_faults                         0                       # Number of TLB faults due to permissions restrictions
system.cpu.dtb.read_accesses                        0                       # DTB read accesses
system.cpu.dtb.write_accesses                       0                       # DTB write accesses
system.cpu.dtb.inst_accesses                        0                       # ITB inst accesses
system.cpu.dtb.hits                                 0                       # DTB hits
system.cpu.dtb.misses                               0                       # DTB misses
system.cpu.dtb.accesses                             0                       # DTB accesses
system.cpu.istage2_mmu.stage2_tlb.walker.pwrStateResidencyTicks::UNDEFINED 500878833500                       # Cumulative time (in ticks) in various power states
system.cpu.istage2_mmu.stage2_tlb.walker.walks            0                       # Table walker walks requested
system.cpu.istage2_mmu.stage2_tlb.walker.walkRequestOrigin_Requested::Data            0                       # Table walker requests started/completed, data/inst
system.cpu.istage2_mmu.stage2_tlb.walker.walkRequestOrigin_Requested::Inst            0                       # Table walker requests started/completed, data/inst
system.cpu.istage2_mmu.stage2_tlb.walker.walkRequestOrigin_Requested::total            0                       # Table walker requests started/completed, data/inst
system.cpu.istage2_mmu.stage2_tlb.walker.walkRequestOrigin_Completed::Data            0                       # Table walker requests started/completed, data/inst
system.cpu.istage2_mmu.stage2_tlb.walker.walkRequestOrigin_Completed::Inst            0                       # Table walker requests started/completed, data/inst
system.cpu.istage2_mmu.stage2_tlb.walker.walkRequestOrigin_Completed::total            0                       # Table walker requests started/completed, data/inst
system.cpu.istage2_mmu.stage2_tlb.walker.walkRequestOrigin::total            0                       # Table walker requests started/completed, data/inst
system.cpu.istage2_mmu.stage2_tlb.inst_hits            0                       # ITB inst hits
system.cpu.istage2_mmu.stage2_tlb.inst_misses            0                       # ITB inst misses
system.cpu.istage2_mmu.stage2_tlb.read_hits            0                       # DTB read hits
system.cpu.istage2_mmu.stage2_tlb.read_misses            0                       # DTB read misses
system.cpu.istage2_mmu.stage2_tlb.write_hits            0                       # DTB write hits
system.cpu.istage2_mmu.stage2_tlb.write_misses            0                       # DTB write misses
system.cpu.istage2_mmu.stage2_tlb.flush_tlb            0                       # Number of times complete TLB was flushed
system.cpu.istage2_mmu.stage2_tlb.flush_tlb_mva            0                       # Number of times TLB was flushed by MVA
system.cpu.istage2_mmu.stage2_tlb.flush_tlb_mva_asid            0                       # Number of times TLB was flushed by MVA & ASID
system.cpu.istage2_mmu.stage2_tlb.flush_tlb_asid            0                       # Number of times TLB was flushed by ASID
system.cpu.istage2_mmu.stage2_tlb.flush_entries            0                       # Number of entries that have been flushed from TLB
system.cpu.istage2_mmu.stage2_tlb.align_faults            0                       # Number of TLB faults due to alignment restrictions
system.cpu.istage2_mmu.stage2_tlb.prefetch_faults            0                       # Number of TLB faults due to prefetch
system.cpu.istage2_mmu.stage2_tlb.domain_faults            0                       # Number of TLB faults due to domain restrictions
system.cpu.istage2_mmu.stage2_tlb.perms_faults            0                       # Number of TLB faults due to permissions restrictions
system.cpu.istage2_mmu.stage2_tlb.read_accesses            0                       # DTB read accesses
system.cpu.istage2_mmu.stage2_tlb.write_accesses            0                       # DTB write accesses
system.cpu.istage2_mmu.stage2_tlb.inst_accesses            0                       # ITB inst accesses
system.cpu.istage2_mmu.stage2_tlb.hits              0                       # DTB hits
system.cpu.istage2_mmu.stage2_tlb.misses            0                       # DTB misses
system.cpu.istage2_mmu.stage2_tlb.accesses            0                       # DTB accesses
system.cpu.itb.walker.pwrStateResidencyTicks::UNDEFINED 500878833500                       # Cumulative time (in ticks) in various power states
system.cpu.itb.walker.walks                         0                       # Table walker walks requested
system.cpu.itb.walker.walkRequestOrigin_Requested::Data            0                       # Table walker requests started/completed, data/inst
system.cpu.itb.walker.walkRequestOrigin_Requested::Inst            0                       # Table walker requests started/completed, data/inst
system.cpu.itb.walker.walkRequestOrigin_Requested::total            0                       # Table walker requests started/completed, data/inst
system.cpu.itb.walker.walkRequestOrigin_Completed::Data            0                       # Table walker requests started/completed, data/inst
system.cpu.itb.walker.walkRequestOrigin_Completed::Inst            0                       # Table walker requests started/completed, data/inst
system.cpu.itb.walker.walkRequestOrigin_Completed::total            0                       # Table walker requests started/completed, data/inst
system.cpu.itb.walker.walkRequestOrigin::total            0                       # Table walker requests started/completed, data/inst
system.cpu.itb.inst_hits                            0                       # ITB inst hits
system.cpu.itb.inst_misses                          0                       # ITB inst misses
system.cpu.itb.read_hits                            0                       # DTB read hits
system.cpu.itb.read_misses                          0                       # DTB read misses
system.cpu.itb.write_hits                           0                       # DTB write hits
system.cpu.itb.write_misses                         0                       # DTB write misses
system.cpu.itb.flush_tlb                            0                       # Number of times complete TLB was flushed
system.cpu.itb.flush_tlb_mva                        0                       # Number of times TLB was flushed by MVA
system.cpu.itb.flush_tlb_mva_asid                   0                       # Number of times TLB was flushed by MVA & ASID
system.cpu.itb.flush_tlb_asid                       0                       # Number of times TLB was flushed by ASID
system.cpu.itb.flush_entries                        0                       # Number of entries that have been flushed from TLB
system.cpu.itb.align_faults                         0                       # Number of TLB faults due to alignment restrictions
system.cpu.itb.prefetch_faults                      0                       # Number of TLB faults due to prefetch
system.cpu.itb.domain_faults                        0                       # Number of TLB faults due to domain restrictions
system.cpu.itb.perms_faults                         0                       # Number of TLB faults due to permissions restrictions
system.cpu.itb.read_accesses                        0                       # DTB read accesses
system.cpu.itb.write_accesses                       0                       # DTB write accesses
system.cpu.itb.inst_accesses                        0                       # ITB inst accesses
system.cpu.itb.hits                                 0                       # DTB hits
system.cpu.itb.misses                               0                       # DTB misses
system.cpu.itb.accesses                             0                       # DTB accesses
system.cpu.workload.num_syscalls                  412                       # Number of system calls
system.cpu.pwrStateResidencyTicks::ON    500878833500                       # Cumulative time (in ticks) in various power states
system.cpu.numCycles                       1001757667                       # number of cpu cycles simulated
system.cpu.numWorkItemsStarted                      0                       # number of work items this cpu started
system.cpu.numWorkItemsCompleted                    0                       # number of work items this cpu completed
system.cpu.committedInsts                   329235205                       # Number of instructions committed
system.cpu.committedOps                     331285316                       # Number of ops (including micro ops) committed
system.cpu.num_int_alu_accesses             321376348                       # Number of integer alu accesses
system.cpu.num_fp_alu_accesses                     16                       # Number of float alu accesses
system.cpu.num_func_calls                      311625                       # number of times a function call or return occured
system.cpu.num_conditional_control_insts      9859829                       # number of instructions that are conditional controls
system.cpu.num_int_insts                    321376348                       # number of integer instructions
system.cpu.num_fp_insts                            16                       # number of float instructions
system.cpu.num_int_register_reads           595425619                       # number of times the integer registers were read
system.cpu.num_int_register_writes          264455207                       # number of times the integer registers were written
system.cpu.num_fp_register_reads                   16                       # number of times the floating registers were read
system.cpu.num_fp_register_writes                   0                       # number of times the floating registers were written
system.cpu.num_cc_register_reads           1366923732                       # number of times the CC registers were read
system.cpu.num_cc_register_writes            29526948                       # number of times the CC registers were written
system.cpu.num_mem_refs                     171516495                       # number of memory refs
system.cpu.num_load_insts                   124201206                       # Number of load instructions
system.cpu.num_store_insts                   47315289                       # Number of store instructions
system.cpu.num_idle_cycles                   0.002000                       # Number of idle cycles
system.cpu.num_busy_cycles               1001757666.998000                       # Number of busy cycles
system.cpu.not_idle_fraction                 1.000000                       # Percentage of non-idle cycles
system.cpu.idle_fraction                     0.000000                       # Percentage of idle cycles
system.cpu.Branches                          10578340                       # Number of branches fetched
system.cpu.op_class::No_OpClass                     0      0.00%      0.00% # Class of executed instruction
system.cpu.op_class::IntAlu                 160075409     48.27%     48.27% # Class of executed instruction
system.cpu.op_class::IntMult                      803      0.00%     48.27% # Class of executed instruction
system.cpu.op_class::IntDiv                         0      0.00%     48.27% # Class of executed instruction
system.cpu.op_class::FloatAdd                       0      0.00%     48.27% # Class of executed instruction
system.cpu.op_class::FloatCmp                       0      0.00%     48.27% # Class of executed instruction
system.cpu.op_class::FloatCvt                       0      0.00%     48.27% # Class of executed instruction
system.cpu.op_class::FloatMult                      0      0.00%     48.27% # Class of executed instruction
system.cpu.op_class::FloatMultAcc                   0      0.00%     48.27% # Class of executed instruction
system.cpu.op_class::FloatDiv                       0      0.00%     48.27% # Class of executed instruction
system.cpu.op_class::FloatMisc                      0      0.00%     48.27% # Class of executed instruction
system.cpu.op_class::FloatSqrt                      0      0.00%     48.27% # Class of executed instruction
system.cpu.op_class::SimdAdd                        0      0.00%     48.27% # Class of executed instruction
system.cpu.op_class::SimdAddAcc                     0      0.00%     48.27% # Class of executed instruction
system.cpu.op_class::SimdAlu                        0      0.00%     48.27% # Class of executed instruction
system.cpu.op_class::SimdCmp                        0      0.00%     48.27% # Class of executed instruction
system.cpu.op_class::SimdCvt                        0      0.00%     48.27% # Class of executed instruction
system.cpu.op_class::SimdMisc                       0      0.00%     48.27% # Class of executed instruction
system.cpu.op_class::SimdMult                       0      0.00%     48.27% # Class of executed instruction
system.cpu.op_class::SimdMultAcc                    0      0.00%     48.27% # Class of executed instruction
system.cpu.op_class::SimdShift                      0      0.00%     48.27% # Class of executed instruction
system.cpu.op_class::SimdShiftAcc                   0      0.00%     48.27% # Class of executed instruction
system.cpu.op_class::SimdSqrt                       0      0.00%     48.27% # Class of executed instruction
system.cpu.op_class::SimdFloatAdd                   0      0.00%     48.27% # Class of executed instruction
system.cpu.op_class::SimdFloatAlu                   0      0.00%     48.27% # Class of executed instruction
system.cpu.op_class::SimdFloatCmp                   0      0.00%     48.27% # Class of executed instruction
system.cpu.op_class::SimdFloatCvt                   0      0.00%     48.27% # Class of executed instruction
system.cpu.op_class::SimdFloatDiv                   0      0.00%     48.27% # Class of executed instruction
system.cpu.op_class::SimdFloatMisc                  0      0.00%     48.27% # Class of executed instruction
system.cpu.op_class::SimdFloatMult                  0      0.00%     48.27% # Class of executed instruction
system.cpu.op_class::SimdFloatMultAcc               0      0.00%     48.27% # Class of executed instruction
system.cpu.op_class::SimdFloatSqrt                  0      0.00%     48.27% # Class of executed instruction
system.cpu.op_class::MemRead                124201206     37.46%     85.73% # Class of executed instruction
system.cpu.op_class::MemWrite                47315273     14.27%    100.00% # Class of executed instruction
system.cpu.op_class::FloatMemRead                   0      0.00%    100.00% # Class of executed instruction
system.cpu.op_class::FloatMemWrite                 16      0.00%    100.00% # Class of executed instruction
system.cpu.op_class::IprAccess                      0      0.00%    100.00% # Class of executed instruction
system.cpu.op_class::InstPrefetch                   0      0.00%    100.00% # Class of executed instruction
system.cpu.op_class::total                  331592707                       # Class of executed instruction
system.cpu.dcache.tags.pwrStateResidencyTicks::UNDEFINED 500878833500                       # Cumulative time (in ticks) in various power states
system.cpu.dcache.tags.replacements             18466                       # number of replacements
system.cpu.dcache.tags.tagsinuse           127.974959                       # Cycle average of tags in use
system.cpu.dcache.tags.total_refs           171242471                       # Total number of references to valid blocks.
system.cpu.dcache.tags.sampled_refs             18594                       # Sample count of references to valid blocks.
system.cpu.dcache.tags.avg_refs           9209.555287                       # Average number of references to valid blocks.
system.cpu.dcache.tags.warmup_cycle        1241218500                       # Cycle when the warmup percentage was hit.
system.cpu.dcache.tags.occ_blocks::cpu.data   127.974959                       # Average occupied blocks per requestor
system.cpu.dcache.tags.occ_percent::cpu.data     0.999804                       # Average percentage of cache occupancy
system.cpu.dcache.tags.occ_percent::total     0.999804                       # Average percentage of cache occupancy
system.cpu.dcache.tags.occ_task_id_blocks::1024          128                       # Occupied blocks per task id
system.cpu.dcache.tags.age_task_id_blocks_1024::0           33                       # Occupied blocks per task id
system.cpu.dcache.tags.age_task_id_blocks_1024::1           33                       # Occupied blocks per task id
system.cpu.dcache.tags.age_task_id_blocks_1024::2           19                       # Occupied blocks per task id
system.cpu.dcache.tags.age_task_id_blocks_1024::4           43                       # Occupied blocks per task id
system.cpu.dcache.tags.occ_task_id_percent::1024            1                       # Percentage of cache occupancy per task id
system.cpu.dcache.tags.tag_accesses         342540730                       # Number of tag accesses
system.cpu.dcache.tags.data_accesses        342540730                       # Number of data accesses
system.cpu.dcache.pwrStateResidencyTicks::UNDEFINED 500878833500                       # Cumulative time (in ticks) in various power states
system.cpu.dcache.ReadReq_hits::cpu.data    123928060                       # number of ReadReq hits
system.cpu.dcache.ReadReq_hits::total       123928060                       # number of ReadReq hits
system.cpu.dcache.WriteReq_hits::cpu.data     47160914                       # number of WriteReq hits
system.cpu.dcache.WriteReq_hits::total       47160914                       # number of WriteReq hits
system.cpu.dcache.SoftPFReq_hits::cpu.data       151839                       # number of SoftPFReq hits
system.cpu.dcache.SoftPFReq_hits::total        151839                       # number of SoftPFReq hits
system.cpu.dcache.LoadLockedReq_hits::cpu.data          828                       # number of LoadLockedReq hits
system.cpu.dcache.LoadLockedReq_hits::total          828                       # number of LoadLockedReq hits
system.cpu.dcache.StoreCondReq_hits::cpu.data          830                       # number of StoreCondReq hits
system.cpu.dcache.StoreCondReq_hits::total          830                       # number of StoreCondReq hits
system.cpu.dcache.demand_hits::cpu.data     171088974                       # number of demand (read+write) hits
system.cpu.dcache.demand_hits::total        171088974                       # number of demand (read+write) hits
system.cpu.dcache.overall_hits::cpu.data    171240813                       # number of overall hits
system.cpu.dcache.overall_hits::total       171240813                       # number of overall hits
system.cpu.dcache.ReadReq_misses::cpu.data        18128                       # number of ReadReq misses
system.cpu.dcache.ReadReq_misses::total         18128                       # number of ReadReq misses
system.cpu.dcache.WriteReq_misses::cpu.data           65                       # number of WriteReq misses
system.cpu.dcache.WriteReq_misses::total           65                       # number of WriteReq misses
system.cpu.dcache.SoftPFReq_misses::cpu.data          402                       # number of SoftPFReq misses
system.cpu.dcache.SoftPFReq_misses::total          402                       # number of SoftPFReq misses
system.cpu.dcache.LoadLockedReq_misses::cpu.data            2                       # number of LoadLockedReq misses
system.cpu.dcache.LoadLockedReq_misses::total            2                       # number of LoadLockedReq misses
system.cpu.dcache.demand_misses::cpu.data        18193                       # number of demand (read+write) misses
system.cpu.dcache.demand_misses::total          18193                       # number of demand (read+write) misses
system.cpu.dcache.overall_misses::cpu.data        18595                       # number of overall misses
system.cpu.dcache.overall_misses::total         18595                       # number of overall misses
system.cpu.dcache.ReadReq_miss_latency::cpu.data    269838000                       # number of ReadReq miss cycles
system.cpu.dcache.ReadReq_miss_latency::total    269838000                       # number of ReadReq miss cycles
system.cpu.dcache.WriteReq_miss_latency::cpu.data      5007500                       # number of WriteReq miss cycles
system.cpu.dcache.WriteReq_miss_latency::total      5007500                       # number of WriteReq miss cycles
system.cpu.dcache.LoadLockedReq_miss_latency::cpu.data        91000                       # number of LoadLockedReq miss cycles
system.cpu.dcache.LoadLockedReq_miss_latency::total        91000                       # number of LoadLockedReq miss cycles
system.cpu.dcache.demand_miss_latency::cpu.data    274845500                       # number of demand (read+write) miss cycles
system.cpu.dcache.demand_miss_latency::total    274845500                       # number of demand (read+write) miss cycles
system.cpu.dcache.overall_miss_latency::cpu.data    274845500                       # number of overall miss cycles
system.cpu.dcache.overall_miss_latency::total    274845500                       # number of overall miss cycles
system.cpu.dcache.ReadReq_accesses::cpu.data    123946188                       # number of ReadReq accesses(hits+misses)
system.cpu.dcache.ReadReq_accesses::total    123946188                       # number of ReadReq accesses(hits+misses)
system.cpu.dcache.WriteReq_accesses::cpu.data     47160979                       # number of WriteReq accesses(hits+misses)
system.cpu.dcache.WriteReq_accesses::total     47160979                       # number of WriteReq accesses(hits+misses)
system.cpu.dcache.SoftPFReq_accesses::cpu.data       152241                       # number of SoftPFReq accesses(hits+misses)
system.cpu.dcache.SoftPFReq_accesses::total       152241                       # number of SoftPFReq accesses(hits+misses)
system.cpu.dcache.LoadLockedReq_accesses::cpu.data          830                       # number of LoadLockedReq accesses(hits+misses)
system.cpu.dcache.LoadLockedReq_accesses::total          830                       # number of LoadLockedReq accesses(hits+misses)
system.cpu.dcache.StoreCondReq_accesses::cpu.data          830                       # number of StoreCondReq accesses(hits+misses)
system.cpu.dcache.StoreCondReq_accesses::total          830                       # number of StoreCondReq accesses(hits+misses)
system.cpu.dcache.demand_accesses::cpu.data    171107167                       # number of demand (read+write) accesses
system.cpu.dcache.demand_accesses::total    171107167                       # number of demand (read+write) accesses
system.cpu.dcache.overall_accesses::cpu.data    171259408                       # number of overall (read+write) accesses
system.cpu.dcache.overall_accesses::total    171259408                       # number of overall (read+write) accesses
system.cpu.dcache.ReadReq_miss_rate::cpu.data     0.000146                       # miss rate for ReadReq accesses
system.cpu.dcache.ReadReq_miss_rate::total     0.000146                       # miss rate for ReadReq accesses
system.cpu.dcache.WriteReq_miss_rate::cpu.data     0.000001                       # miss rate for WriteReq accesses
system.cpu.dcache.WriteReq_miss_rate::total     0.000001                       # miss rate for WriteReq accesses
system.cpu.dcache.SoftPFReq_miss_rate::cpu.data     0.002641                       # miss rate for SoftPFReq accesses
system.cpu.dcache.SoftPFReq_miss_rate::total     0.002641                       # miss rate for SoftPFReq accesses
system.cpu.dcache.LoadLockedReq_miss_rate::cpu.data     0.002410                       # miss rate for LoadLockedReq accesses
system.cpu.dcache.LoadLockedReq_miss_rate::total     0.002410                       # miss rate for LoadLockedReq accesses
system.cpu.dcache.demand_miss_rate::cpu.data     0.000106                       # miss rate for demand accesses
system.cpu.dcache.demand_miss_rate::total     0.000106                       # miss rate for demand accesses
system.cpu.dcache.overall_miss_rate::cpu.data     0.000109                       # miss rate for overall accesses
system.cpu.dcache.overall_miss_rate::total     0.000109                       # miss rate for overall accesses
system.cpu.dcache.ReadReq_avg_miss_latency::cpu.data 14885.150044                       # average ReadReq miss latency
system.cpu.dcache.ReadReq_avg_miss_latency::total 14885.150044                       # average ReadReq miss latency
system.cpu.dcache.WriteReq_avg_miss_latency::cpu.data 77038.461538                       # average WriteReq miss latency
system.cpu.dcache.WriteReq_avg_miss_latency::total 77038.461538                       # average WriteReq miss latency
system.cpu.dcache.LoadLockedReq_avg_miss_latency::cpu.data        45500                       # average LoadLockedReq miss latency
system.cpu.dcache.LoadLockedReq_avg_miss_latency::total        45500                       # average LoadLockedReq miss latency
system.cpu.dcache.demand_avg_miss_latency::cpu.data 15107.211565                       # average overall miss latency
system.cpu.dcache.demand_avg_miss_latency::total 15107.211565                       # average overall miss latency
system.cpu.dcache.overall_avg_miss_latency::cpu.data 14780.613068                       # average overall miss latency
system.cpu.dcache.overall_avg_miss_latency::total 14780.613068                       # average overall miss latency
system.cpu.dcache.blocked_cycles::no_mshrs            0                       # number of cycles access was blocked
system.cpu.dcache.blocked_cycles::no_targets            0                       # number of cycles access was blocked
system.cpu.dcache.blocked::no_mshrs                 0                       # number of cycles access was blocked
system.cpu.dcache.blocked::no_targets               0                       # number of cycles access was blocked
system.cpu.dcache.avg_blocked_cycles::no_mshrs          nan                       # average number of cycles each access was blocked
system.cpu.dcache.avg_blocked_cycles::no_targets          nan                       # average number of cycles each access was blocked
system.cpu.dcache.writebacks::writebacks         6029                       # number of writebacks
system.cpu.dcache.writebacks::total              6029                       # number of writebacks
system.cpu.dcache.ReadReq_mshr_hits::cpu.data            1                       # number of ReadReq MSHR hits
system.cpu.dcache.ReadReq_mshr_hits::total            1                       # number of ReadReq MSHR hits
system.cpu.dcache.demand_mshr_hits::cpu.data            1                       # number of demand (read+write) MSHR hits
system.cpu.dcache.demand_mshr_hits::total            1                       # number of demand (read+write) MSHR hits
system.cpu.dcache.overall_mshr_hits::cpu.data            1                       # number of overall MSHR hits
system.cpu.dcache.overall_mshr_hits::total            1                       # number of overall MSHR hits
system.cpu.dcache.ReadReq_mshr_misses::cpu.data        18127                       # number of ReadReq MSHR misses
system.cpu.dcache.ReadReq_mshr_misses::total        18127                       # number of ReadReq MSHR misses
system.cpu.dcache.WriteReq_mshr_misses::cpu.data           65                       # number of WriteReq MSHR misses
system.cpu.dcache.WriteReq_mshr_misses::total           65                       # number of WriteReq MSHR misses
system.cpu.dcache.SoftPFReq_mshr_misses::cpu.data          400                       # number of SoftPFReq MSHR misses
system.cpu.dcache.SoftPFReq_mshr_misses::total          400                       # number of SoftPFReq MSHR misses
system.cpu.dcache.LoadLockedReq_mshr_misses::cpu.data            2                       # number of LoadLockedReq MSHR misses
system.cpu.dcache.LoadLockedReq_mshr_misses::total            2                       # number of LoadLockedReq MSHR misses
system.cpu.dcache.demand_mshr_misses::cpu.data        18192                       # number of demand (read+write) MSHR misses
system.cpu.dcache.demand_mshr_misses::total        18192                       # number of demand (read+write) MSHR misses
system.cpu.dcache.overall_mshr_misses::cpu.data        18592                       # number of overall MSHR misses
system.cpu.dcache.overall_mshr_misses::total        18592                       # number of overall MSHR misses
system.cpu.dcache.ReadReq_mshr_miss_latency::cpu.data    251635000                       # number of ReadReq MSHR miss cycles
system.cpu.dcache.ReadReq_mshr_miss_latency::total    251635000                       # number of ReadReq MSHR miss cycles
system.cpu.dcache.WriteReq_mshr_miss_latency::cpu.data      4942500                       # number of WriteReq MSHR miss cycles
system.cpu.dcache.WriteReq_mshr_miss_latency::total      4942500                       # number of WriteReq MSHR miss cycles
system.cpu.dcache.SoftPFReq_mshr_miss_latency::cpu.data      5089000                       # number of SoftPFReq MSHR miss cycles
system.cpu.dcache.SoftPFReq_mshr_miss_latency::total      5089000                       # number of SoftPFReq MSHR miss cycles
system.cpu.dcache.LoadLockedReq_mshr_miss_latency::cpu.data        89000                       # number of LoadLockedReq MSHR miss cycles
system.cpu.dcache.LoadLockedReq_mshr_miss_latency::total        89000                       # number of LoadLockedReq MSHR miss cycles
system.cpu.dcache.demand_mshr_miss_latency::cpu.data    256577500                       # number of demand (read+write) MSHR miss cycles
system.cpu.dcache.demand_mshr_miss_latency::total    256577500                       # number of demand (read+write) MSHR miss cycles
system.cpu.dcache.overall_mshr_miss_latency::cpu.data    261666500                       # number of overall MSHR miss cycles
system.cpu.dcache.overall_mshr_miss_latency::total    261666500                       # number of overall MSHR miss cycles
system.cpu.dcache.ReadReq_mshr_miss_rate::cpu.data     0.000146                       # mshr miss rate for ReadReq accesses
system.cpu.dcache.ReadReq_mshr_miss_rate::total     0.000146                       # mshr miss rate for ReadReq accesses
system.cpu.dcache.WriteReq_mshr_miss_rate::cpu.data     0.000001                       # mshr miss rate for WriteReq accesses
system.cpu.dcache.WriteReq_mshr_miss_rate::total     0.000001                       # mshr miss rate for WriteReq accesses
system.cpu.dcache.SoftPFReq_mshr_miss_rate::cpu.data     0.002627                       # mshr miss rate for SoftPFReq accesses
system.cpu.dcache.SoftPFReq_mshr_miss_rate::total     0.002627                       # mshr miss rate for SoftPFReq accesses
system.cpu.dcache.LoadLockedReq_mshr_miss_rate::cpu.data     0.002410                       # mshr miss rate for LoadLockedReq accesses
system.cpu.dcache.LoadLockedReq_mshr_miss_rate::total     0.002410                       # mshr miss rate for LoadLockedReq accesses
system.cpu.dcache.demand_mshr_miss_rate::cpu.data     0.000106                       # mshr miss rate for demand accesses
system.cpu.dcache.demand_mshr_miss_rate::total     0.000106                       # mshr miss rate for demand accesses
system.cpu.dcache.overall_mshr_miss_rate::cpu.data     0.000109                       # mshr miss rate for overall accesses
system.cpu.dcache.overall_mshr_miss_rate::total     0.000109                       # mshr miss rate for overall accesses
system.cpu.dcache.ReadReq_avg_mshr_miss_latency::cpu.data 13881.778562                       # average ReadReq mshr miss latency
system.cpu.dcache.ReadReq_avg_mshr_miss_latency::total 13881.778562                       # average ReadReq mshr miss latency
system.cpu.dcache.WriteReq_avg_mshr_miss_latency::cpu.data 76038.461538                       # average WriteReq mshr miss latency
system.cpu.dcache.WriteReq_avg_mshr_miss_latency::total 76038.461538                       # average WriteReq mshr miss latency
system.cpu.dcache.SoftPFReq_avg_mshr_miss_latency::cpu.data 12722.500000                       # average SoftPFReq mshr miss latency
system.cpu.dcache.SoftPFReq_avg_mshr_miss_latency::total 12722.500000                       # average SoftPFReq mshr miss latency
system.cpu.dcache.LoadLockedReq_avg_mshr_miss_latency::cpu.data        44500                       # average LoadLockedReq mshr miss latency
system.cpu.dcache.LoadLockedReq_avg_mshr_miss_latency::total        44500                       # average LoadLockedReq mshr miss latency
system.cpu.dcache.demand_avg_mshr_miss_latency::cpu.data 14103.864336                       # average overall mshr miss latency
system.cpu.dcache.demand_avg_mshr_miss_latency::total 14103.864336                       # average overall mshr miss latency
system.cpu.dcache.overall_avg_mshr_miss_latency::cpu.data 14074.144793                       # average overall mshr miss latency
system.cpu.dcache.overall_avg_mshr_miss_latency::total 14074.144793                       # average overall mshr miss latency
system.cpu.icache.tags.pwrStateResidencyTicks::UNDEFINED 500878833500                       # Cumulative time (in ticks) in various power states
system.cpu.icache.tags.replacements              1479                       # number of replacements
system.cpu.icache.tags.tagsinuse           196.997149                       # Cycle average of tags in use
system.cpu.icache.tags.total_refs           329336260                       # Total number of references to valid blocks.
system.cpu.icache.tags.sampled_refs              1724                       # Sample count of references to valid blocks.
system.cpu.icache.tags.avg_refs          191030.313225                       # Average number of references to valid blocks.
system.cpu.icache.tags.warmup_cycle                 0                       # Cycle when the warmup percentage was hit.
system.cpu.icache.tags.occ_blocks::cpu.inst   196.997149                       # Average occupied blocks per requestor
system.cpu.icache.tags.occ_percent::cpu.inst     0.769520                       # Average percentage of cache occupancy
system.cpu.icache.tags.occ_percent::total     0.769520                       # Average percentage of cache occupancy
system.cpu.icache.tags.occ_task_id_blocks::1024          245                       # Occupied blocks per task id
system.cpu.icache.tags.age_task_id_blocks_1024::0           89                       # Occupied blocks per task id
system.cpu.icache.tags.age_task_id_blocks_1024::1           80                       # Occupied blocks per task id
system.cpu.icache.tags.age_task_id_blocks_1024::2            5                       # Occupied blocks per task id
system.cpu.icache.tags.age_task_id_blocks_1024::4           71                       # Occupied blocks per task id
system.cpu.icache.tags.occ_task_id_percent::1024     0.957031                       # Percentage of cache occupancy per task id
system.cpu.icache.tags.tag_accesses         658677692                       # Number of tag accesses
system.cpu.icache.tags.data_accesses        658677692                       # Number of data accesses
system.cpu.icache.pwrStateResidencyTicks::UNDEFINED 500878833500                       # Cumulative time (in ticks) in various power states
system.cpu.icache.ReadReq_hits::cpu.inst    329336260                       # number of ReadReq hits
system.cpu.icache.ReadReq_hits::total       329336260                       # number of ReadReq hits
system.cpu.icache.demand_hits::cpu.inst     329336260                       # number of demand (read+write) hits
system.cpu.icache.demand_hits::total        329336260                       # number of demand (read+write) hits
system.cpu.icache.overall_hits::cpu.inst    329336260                       # number of overall hits
system.cpu.icache.overall_hits::total       329336260                       # number of overall hits
system.cpu.icache.ReadReq_misses::cpu.inst         1724                       # number of ReadReq misses
system.cpu.icache.ReadReq_misses::total          1724                       # number of ReadReq misses
system.cpu.icache.demand_misses::cpu.inst         1724                       # number of demand (read+write) misses
system.cpu.icache.demand_misses::total           1724                       # number of demand (read+write) misses
system.cpu.icache.overall_misses::cpu.inst         1724                       # number of overall misses
system.cpu.icache.overall_misses::total          1724                       # number of overall misses
system.cpu.icache.ReadReq_miss_latency::cpu.inst     56731500                       # number of ReadReq miss cycles
system.cpu.icache.ReadReq_miss_latency::total     56731500                       # number of ReadReq miss cycles
system.cpu.icache.demand_miss_latency::cpu.inst     56731500                       # number of demand (read+write) miss cycles
system.cpu.icache.demand_miss_latency::total     56731500                       # number of demand (read+write) miss cycles
system.cpu.icache.overall_miss_latency::cpu.inst     56731500                       # number of overall miss cycles
system.cpu.icache.overall_miss_latency::total     56731500                       # number of overall miss cycles
system.cpu.icache.ReadReq_accesses::cpu.inst    329337984                       # number of ReadReq accesses(hits+misses)
system.cpu.icache.ReadReq_accesses::total    329337984                       # number of ReadReq accesses(hits+misses)
system.cpu.icache.demand_accesses::cpu.inst    329337984                       # number of demand (read+write) accesses
system.cpu.icache.demand_accesses::total    329337984                       # number of demand (read+write) accesses
system.cpu.icache.overall_accesses::cpu.inst    329337984                       # number of overall (read+write) accesses
system.cpu.icache.overall_accesses::total    329337984                       # number of overall (read+write) accesses
system.cpu.icache.ReadReq_miss_rate::cpu.inst     0.000005                       # miss rate for ReadReq accesses
system.cpu.icache.ReadReq_miss_rate::total     0.000005                       # miss rate for ReadReq accesses
system.cpu.icache.demand_miss_rate::cpu.inst     0.000005                       # miss rate for demand accesses
system.cpu.icache.demand_miss_rate::total     0.000005                       # miss rate for demand accesses
system.cpu.icache.overall_miss_rate::cpu.inst     0.000005                       # miss rate for overall accesses
system.cpu.icache.overall_miss_rate::total     0.000005                       # miss rate for overall accesses
system.cpu.icache.ReadReq_avg_miss_latency::cpu.inst 32906.902552                       # average ReadReq miss latency
system.cpu.icache.ReadReq_avg_miss_latency::total 32906.902552                       # average ReadReq miss latency
system.cpu.icache.demand_avg_miss_latency::cpu.inst 32906.902552                       # average overall miss latency
system.cpu.icache.demand_avg_miss_latency::total 32906.902552                       # average overall miss latency
system.cpu.icache.overall_avg_miss_latency::cpu.inst 32906.902552                       # average overall miss latency
system.cpu.icache.overall_avg_miss_latency::total 32906.902552                       # average overall miss latency
system.cpu.icache.blocked_cycles::no_mshrs            0                       # number of cycles access was blocked
system.cpu.icache.blocked_cycles::no_targets            0                       # number of cycles access was blocked
system.cpu.icache.blocked::no_mshrs                 0                       # number of cycles access was blocked
system.cpu.icache.blocked::no_targets               0                       # number of cycles access was blocked
system.cpu.icache.avg_blocked_cycles::no_mshrs          nan                       # average number of cycles each access was blocked
system.cpu.icache.avg_blocked_cycles::no_targets          nan                       # average number of cycles each access was blocked
system.cpu.icache.writebacks::writebacks         1479                       # number of writebacks
system.cpu.icache.writebacks::total              1479                       # number of writebacks
system.cpu.icache.ReadReq_mshr_misses::cpu.inst         1724                       # number of ReadReq MSHR misses
system.cpu.icache.ReadReq_mshr_misses::total         1724                       # number of ReadReq MSHR misses
system.cpu.icache.demand_mshr_misses::cpu.inst         1724                       # number of demand (read+write) MSHR misses
system.cpu.icache.demand_mshr_misses::total         1724                       # number of demand (read+write) MSHR misses
system.cpu.icache.overall_mshr_misses::cpu.inst         1724                       # number of overall MSHR misses
system.cpu.icache.overall_mshr_misses::total         1724                       # number of overall MSHR misses
system.cpu.icache.ReadReq_mshr_miss_latency::cpu.inst     55007500                       # number of ReadReq MSHR miss cycles
system.cpu.icache.ReadReq_mshr_miss_latency::total     55007500                       # number of ReadReq MSHR miss cycles
system.cpu.icache.demand_mshr_miss_latency::cpu.inst     55007500                       # number of demand (read+write) MSHR miss cycles
system.cpu.icache.demand_mshr_miss_latency::total     55007500                       # number of demand (read+write) MSHR miss cycles
system.cpu.icache.overall_mshr_miss_latency::cpu.inst     55007500                       # number of overall MSHR miss cycles
system.cpu.icache.overall_mshr_miss_latency::total     55007500                       # number of overall MSHR miss cycles
[...]
system.l2.overall_miss_latency::cpu.data     40983000                       # number of overall miss cycles
system.l2.overall_miss_latency::total        79992000                       # number of overall miss cycles
system.l2.WritebackDirty_accesses::writebacks         6029                       # number of WritebackDirty accesses(hits+misses)
system.l2.WritebackDirty_accesses::total         6029                       # number of WritebackDirty accesses(hits+misses)
system.l2.WritebackClean_accesses::writebacks         1469                       # number of WritebackClean accesses(hits+misses)
system.l2.WritebackClean_accesses::total         1469                       # number of WritebackClean accesses(hits+misses)
system.l2.ReadExReq_accesses::cpu.data             65                       # number of ReadExReq accesses(hits+misses)
system.l2.ReadExReq_accesses::total                65                       # number of ReadExReq accesses(hits+misses)
system.l2.ReadCleanReq_accesses::cpu.inst         1724                       # number of ReadCleanReq accesses(hits+misses)
system.l2.ReadCleanReq_accesses::total           1724                       # number of ReadCleanReq accesses(hits+misses)
system.l2.ReadSharedReq_accesses::cpu.data        18529                       # number of ReadSharedReq accesses(hits+misses)
system.l2.ReadSharedReq_accesses::total         18529                       # number of ReadSharedReq accesses(hits+misses)
system.l2.demand_accesses::cpu.inst              1724                       # number of demand (read+write) accesses
system.l2.demand_accesses::cpu.data             18594                       # number of demand (read+write) accesses
system.l2.demand_accesses::total                20318                       # number of demand (read+write) accesses
system.l2.overall_accesses::cpu.inst             1724                       # number of overall (read+write) accesses
system.l2.overall_accesses::cpu.data            18594                       # number of overall (read+write) accesses
system.l2.overall_accesses::total               20318                       # number of overall (read+write) accesses
system.l2.ReadExReq_miss_rate::cpu.data      0.923077                       # miss rate for ReadExReq accesses
system.l2.ReadExReq_miss_rate::total         0.923077                       # miss rate for ReadExReq accesses
system.l2.ReadCleanReq_miss_rate::cpu.inst     0.261021                       # miss rate for ReadCleanReq accesses
system.l2.ReadCleanReq_miss_rate::total      0.261021                       # miss rate for ReadCleanReq accesses
system.l2.ReadSharedReq_miss_rate::cpu.data     0.013115                       # miss rate for ReadSharedReq accesses
system.l2.ReadSharedReq_miss_rate::total     0.013115                       # miss rate for ReadSharedReq accesses
system.l2.demand_miss_rate::cpu.inst         0.261021                       # miss rate for demand accesses
system.l2.demand_miss_rate::cpu.data         0.016296                       # miss rate for demand accesses
system.l2.demand_miss_rate::total            0.037061                       # miss rate for demand accesses
system.l2.overall_miss_rate::cpu.inst        0.261021                       # miss rate for overall accesses
system.l2.overall_miss_rate::cpu.data        0.016296                       # miss rate for overall accesses
system.l2.overall_miss_rate::total           0.037061                       # miss rate for overall accesses
system.l2.ReadExReq_avg_miss_latency::cpu.data 79858.333333                       # average ReadExReq miss latency
system.l2.ReadExReq_avg_miss_latency::total 79858.333333                       # average ReadExReq miss latency
system.l2.ReadCleanReq_avg_miss_latency::cpu.inst 86686.666667                       # average ReadCleanReq miss latency
system.l2.ReadCleanReq_avg_miss_latency::total 86686.666667                       # average ReadCleanReq miss latency
system.l2.ReadSharedReq_avg_miss_latency::cpu.data 148936.213992                       # average ReadSharedReq miss latency
system.l2.ReadSharedReq_avg_miss_latency::total 148936.213992                       # average ReadSharedReq miss latency
system.l2.demand_avg_miss_latency::cpu.inst 86686.666667                       # average overall miss latency
system.l2.demand_avg_miss_latency::cpu.data 135257.425743                       # average overall miss latency
system.l2.demand_avg_miss_latency::total 106231.075697                       # average overall miss latency
system.l2.overall_avg_miss_latency::cpu.inst 86686.666667                       # average overall miss latency
system.l2.overall_avg_miss_latency::cpu.data 135257.425743                       # average overall miss latency
system.l2.overall_avg_miss_latency::total 106231.075697                       # average overall miss latency
system.l2.blocked_cycles::no_mshrs                  0                       # number of cycles access was blocked
system.l2.blocked_cycles::no_targets                0                       # number of cycles access was blocked
system.l2.blocked::no_mshrs                         0                       # number of cycles access was blocked
system.l2.blocked::no_targets                       0                       # number of cycles access was blocked
system.l2.avg_blocked_cycles::no_mshrs            nan                       # average number of cycles each access was blocked
system.l2.avg_blocked_cycles::no_targets          nan                       # average number of cycles each access was blocked
system.l2.ReadExReq_mshr_misses::cpu.data           60                       # number of ReadExReq MSHR misses
system.l2.ReadExReq_mshr_misses::total             60                       # number of ReadExReq MSHR misses
system.l2.ReadCleanReq_mshr_misses::cpu.inst          450                       # number of ReadCleanReq MSHR misses
system.l2.ReadCleanReq_mshr_misses::total          450                       # number of ReadCleanReq MSHR misses
system.l2.ReadSharedReq_mshr_misses::cpu.data          243                       # number of ReadSharedReq MSHR misses
system.l2.ReadSharedReq_mshr_misses::total          243                       # number of ReadSharedReq MSHR misses
system.l2.demand_mshr_misses::cpu.inst            450                       # number of demand (read+write) MSHR misses
system.l2.demand_mshr_misses::cpu.data            303                       # number of demand (read+write) MSHR misses
system.l2.demand_mshr_misses::total               753                       # number of demand (read+write) MSHR misses
system.l2.overall_mshr_misses::cpu.inst           450                       # number of overall MSHR misses
system.l2.overall_mshr_misses::cpu.data           303                       # number of overall MSHR misses
system.l2.overall_mshr_misses::total              753                       # number of overall MSHR misses
system.l2.ReadExReq_mshr_miss_latency::cpu.data      4191500                       # number of ReadExReq MSHR miss cycles
system.l2.ReadExReq_mshr_miss_latency::total      4191500                       # number of ReadExReq MSHR miss cycles
system.l2.ReadCleanReq_mshr_miss_latency::cpu.inst     34509000                       # number of ReadCleanReq MSHR miss cycles
system.l2.ReadCleanReq_mshr_miss_latency::total     34509000                       # number of ReadCleanReq MSHR miss cycles
system.l2.ReadSharedReq_mshr_miss_latency::cpu.data     33761500                       # number of ReadSharedReq MSHR miss cycles
system.l2.ReadSharedReq_mshr_miss_latency::total     33761500                       # number of ReadSharedReq MSHR miss cycles
system.l2.demand_mshr_miss_latency::cpu.inst     34509000                       # number of demand (read+write) MSHR miss cycles
system.l2.demand_mshr_miss_latency::cpu.data     37953000                       # number of demand (read+write) MSHR miss cycles
system.l2.demand_mshr_miss_latency::total     72462000                       # number of demand (read+write) MSHR miss cycles
system.l2.overall_mshr_miss_latency::cpu.inst     34509000                       # number of overall MSHR miss cycles
system.l2.overall_mshr_miss_latency::cpu.data     37953000                       # number of overall MSHR miss cycles
system.l2.overall_mshr_miss_latency::total     72462000                       # number of overall MSHR miss cycles
system.l2.ReadExReq_mshr_miss_rate::cpu.data     0.923077                       # mshr miss rate for ReadExReq accesses
system.l2.ReadExReq_mshr_miss_rate::total     0.923077                       # mshr miss rate for ReadExReq accesses
system.l2.ReadCleanReq_mshr_miss_rate::cpu.inst     0.261021                       # mshr miss rate for ReadCleanReq accesses
system.l2.ReadCleanReq_mshr_miss_rate::total     0.261021                       # mshr miss rate for ReadCleanReq accesses
system.l2.ReadSharedReq_mshr_miss_rate::cpu.data     0.013115                       # mshr miss rate for ReadSharedReq accesses
system.l2.ReadSharedReq_mshr_miss_rate::total     0.013115                       # mshr miss rate for ReadSharedReq accesses
system.l2.demand_mshr_miss_rate::cpu.inst     0.261021                       # mshr miss rate for demand accesses
system.l2.demand_mshr_miss_rate::cpu.data     0.016296                       # mshr miss rate for demand accesses
system.l2.demand_mshr_miss_rate::total       0.037061                       # mshr miss rate for demand accesses
system.l2.overall_mshr_miss_rate::cpu.inst     0.261021                       # mshr miss rate for overall accesses
system.l2.overall_mshr_miss_rate::cpu.data     0.016296                       # mshr miss rate for overall accesses
system.l2.overall_mshr_miss_rate::total      0.037061                       # mshr miss rate for overall accesses
system.l2.ReadExReq_avg_mshr_miss_latency::cpu.data 69858.333333                       # average ReadExReq mshr miss latency
system.l2.ReadExReq_avg_mshr_miss_latency::total 69858.333333                       # average ReadExReq mshr miss latency
system.l2.ReadCleanReq_avg_mshr_miss_latency::cpu.inst 76686.666667                       # average ReadCleanReq mshr miss latency
system.l2.ReadCleanReq_avg_mshr_miss_latency::total 76686.666667                       # average ReadCleanReq mshr miss latency
system.l2.ReadSharedReq_avg_mshr_miss_latency::cpu.data 138936.213992                       # average ReadSharedReq mshr miss latency
system.l2.ReadSharedReq_avg_mshr_miss_latency::total 138936.213992                       # average ReadSharedReq mshr miss latency
system.l2.demand_avg_mshr_miss_latency::cpu.inst 76686.666667                       # average overall mshr miss latency
system.l2.demand_avg_mshr_miss_latency::cpu.data 125257.425743                       # average overall mshr miss latency
system.l2.demand_avg_mshr_miss_latency::total 96231.075697                       # average overall mshr miss latency
system.l2.overall_avg_mshr_miss_latency::cpu.inst 76686.666667                       # average overall mshr miss latency
system.l2.overall_avg_mshr_miss_latency::cpu.data 125257.425743                       # average overall mshr miss latency
system.l2.overall_avg_mshr_miss_latency::total 96231.075697                       # average overall mshr miss latency
system.membus.snoop_filter.tot_requests           753                       # Total number of requests made to the snoop filter.
system.membus.snoop_filter.hit_single_requests            0                       # Number of requests hitting in the snoop filter with a single holder of the requested data.
system.membus.snoop_filter.hit_multi_requests            0                       # Number of requests hitting in the snoop filter with multiple (>1) holders of the requested data.
system.membus.snoop_filter.tot_snoops               0                       # Total number of snoops made to the snoop filter.
system.membus.snoop_filter.hit_single_snoops            0                       # Number of snoops hitting in the snoop filter with a single holder of the requested data.
system.membus.snoop_filter.hit_multi_snoops            0                       # Number of snoops hitting in the snoop filter with multiple (>1) holders of the requested data.
system.membus.pwrStateResidencyTicks::UNDEFINED 500878833500                       # Cumulative time (in ticks) in various power states
system.membus.trans_dist::ReadResp                693                       # Transaction distribution
system.membus.trans_dist::ReadExReq                60                       # Transaction distribution
system.membus.trans_dist::ReadExResp               60                       # Transaction distribution
system.membus.trans_dist::ReadSharedReq           693                       # Transaction distribution
system.membus.pkt_count_system.l2.mem_side::system.mem_ctrls.port         1506                       # Packet count per connected master and slave (bytes)
system.membus.pkt_count::total                   1506                       # Packet count per connected master and slave (bytes)
system.membus.pkt_size_system.l2.mem_side::system.mem_ctrls.port        48192                       # Cumulative packet size per connected master and slave (bytes)
system.membus.pkt_size::total                   48192                       # Cumulative packet size per connected master and slave (bytes)
system.membus.snoops                                0                       # Total snoops (count)
system.membus.snoopTraffic                          0                       # Total snoop traffic (bytes)
system.membus.snoop_fanout::samples               753                       # Request fanout histogram
system.membus.snoop_fanout::mean                    0                       # Request fanout histogram
system.membus.snoop_fanout::stdev                   0                       # Request fanout histogram
system.membus.snoop_fanout::underflows              0      0.00%      0.00% # Request fanout histogram
system.membus.snoop_fanout::0                     753    100.00%    100.00% # Request fanout histogram
system.membus.snoop_fanout::1                       0      0.00%    100.00% # Request fanout histogram
system.membus.snoop_fanout::overflows               0      0.00%    100.00% # Request fanout histogram
system.membus.snoop_fanout::min_value               0                       # Request fanout histogram
system.membus.snoop_fanout::max_value               0                       # Request fanout histogram
system.membus.snoop_fanout::total                 753                       # Request fanout histogram
system.membus.reqLayer0.occupancy              773500                       # Layer occupancy (ticks)
system.membus.reqLayer0.utilization               0.0                       # Layer utilization (%)
system.membus.respLayer1.occupancy            4023750                       # Layer occupancy (ticks)
system.membus.respLayer1.utilization              0.0                       # Layer utilization (%)
system.tol2bus.snoop_filter.tot_requests        40263                       # Total number of requests made to the snoop filter.
system.tol2bus.snoop_filter.hit_single_requests        19956                       # Number of requests hitting in the snoop filter with a single holder of the requested data.
system.tol2bus.snoop_filter.hit_multi_requests          832                       # Number of requests hitting in the snoop filter with multiple (>1) holders of the requested data.
system.tol2bus.snoop_filter.tot_snoops              0                       # Total number of snoops made to the snoop filter.
system.tol2bus.snoop_filter.hit_single_snoops            0                       # Number of snoops hitting in the snoop filter with a single holder of the requested data.
system.tol2bus.snoop_filter.hit_multi_snoops            0                       # Number of snoops hitting in the snoop filter with multiple (>1) holders of the requested data.
system.tol2bus.pwrStateResidencyTicks::UNDEFINED 500878833500                       # Cumulative time (in ticks) in various power states
system.tol2bus.trans_dist::ReadResp             20253                       # Transaction distribution
system.tol2bus.trans_dist::WritebackDirty         6029                       # Transaction distribution
system.tol2bus.trans_dist::WritebackClean         1479                       # Transaction distribution
system.tol2bus.trans_dist::CleanEvict           12437                       # Transaction distribution
system.tol2bus.trans_dist::ReadExReq               65                       # Transaction distribution
system.tol2bus.trans_dist::ReadExResp              65                       # Transaction distribution
system.tol2bus.trans_dist::ReadCleanReq          1724                       # Transaction distribution
system.tol2bus.trans_dist::ReadSharedReq        18529                       # Transaction distribution
system.tol2bus.pkt_count_system.cpu.icache.mem_side::system.l2.cpu_side         4927                       # Packet count per connected master and slave (bytes)
system.tol2bus.pkt_count_system.cpu.dcache.mem_side::system.l2.cpu_side        55654                       # Packet count per connected master and slave (bytes)
system.tol2bus.pkt_count::total                 60581                       # Packet count per connected master and slave (bytes)
system.tol2bus.pkt_size_system.cpu.icache.mem_side::system.l2.cpu_side       204992                       # Cumulative packet size per connected master and slave (bytes)
system.tol2bus.pkt_size_system.cpu.dcache.mem_side::system.l2.cpu_side      1575872                       # Cumulative packet size per connected master and slave (bytes)
system.tol2bus.pkt_size::total                1780864                       # Cumulative packet size per connected master and slave (bytes)
system.tol2bus.snoops                               0                       # Total snoops (count)
system.tol2bus.snoopTraffic                         0                       # Total snoop traffic (bytes)
system.tol2bus.snoop_fanout::samples            20318                       # Request fanout histogram
system.tol2bus.snoop_fanout::mean            0.041490                       # Request fanout histogram
system.tol2bus.snoop_fanout::stdev           0.199426                       # Request fanout histogram
system.tol2bus.snoop_fanout::underflows             0      0.00%      0.00% # Request fanout histogram
system.tol2bus.snoop_fanout::0                  19475     95.85%     95.85% # Request fanout histogram
system.tol2bus.snoop_fanout::1                    843      4.15%    100.00% # Request fanout histogram
system.tol2bus.snoop_fanout::2                      0      0.00%    100.00% # Request fanout histogram
system.tol2bus.snoop_fanout::overflows              0      0.00%    100.00% # Request fanout histogram
system.tol2bus.snoop_fanout::min_value              0                       # Request fanout histogram
system.tol2bus.snoop_fanout::max_value              1                       # Request fanout histogram
system.tol2bus.snoop_fanout::total              20318                       # Request fanout histogram
system.tol2bus.reqLayer0.occupancy           27639500                       # Layer occupancy (ticks)
system.tol2bus.reqLayer0.utilization              0.0                       # Layer utilization (%)
system.tol2bus.respLayer0.occupancy           2586000                       # Layer occupancy (ticks)
system.tol2bus.respLayer0.utilization             0.0                       # Layer utilization (%)
system.tol2bus.respLayer1.occupancy          27891000                       # Layer occupancy (ticks)
system.tol2bus.respLayer1.utilization             0.0                       # Layer utilization (%)

---------- End Simulation Statistics   ----------
